data/Network_05R-10/scenario_4/case.raw
 0,    100, 33, 0, 0, 60.0 / Header line 1
Header line 2
Header line 3
  1001,'',   115, 1, 1, 1, 1, 0.99869131, -16.798658, 1.1, 0.9, 1.1, 0.9
  1002,'',   115, 1, 1, 1, 1, 1.0462443, -15.209486, 1.1, 0.9, 1.1, 0.9
  1003,'',   115, 1, 1, 1, 1, 1.0128189, -0.77142707, 1.1, 0.9, 1.1, 0.9
  1004,'',   230, 2, 1, 1, 1, 1.0121547, -1.539744, 1.1, 0.9, 1.1, 0.9
  1005,'',   115, 1, 1, 1, 1, 1.0090645, -0.57357831, 1.1, 0.9, 1.1, 0.9
  1006,'',  13.8, 2, 1, 1, 1, 1.0027478, 1.8338565, 1.1, 0.9, 1.1, 0.9
  1007,'',   115, 1, 1, 1, 1, 1.0489892, -15.313345, 1.1, 0.9, 1.1, 0.9
  1008,'',   115, 1, 1, 1, 1, 1.0142872, -6.2588829, 1.1, 0.9, 1.1, 0.9
  1009,'',  13.8, 2, 1, 1, 1, 1.0032951, -5.949371, 1.1, 0.9, 1.1, 0.9
  1010,'',   115, 1, 1, 1, 1, 1.0495051, -14.369672, 1.1, 0.9, 1.1, 0.9
  1011,'',    22, 2, 1, 1, 1, 1.0495051, -14.369672, 1.1, 0.9, 1.1, 0.9
  1012,'',   115, 1, 1, 1, 1, 1.015, -16.963857, 1.1, 0.9, 1.1, 0.9
  1013,'',   115, 1, 1, 1, 1, 1.0106288, -12.717248, 1.1, 0.9, 1.1, 0.9
  1014,'',   115, 1, 1, 1, 1, 1.0119426, -9.8015211, 1.1, 0.9, 1.1, 0.9
  1015,'',   115, 1, 1, 1, 1, 1.0531748, -15.258389, 1.1, 0.9, 1.1, 0.9
  1016,'',   115, 1, 1, 1, 1, 1.015, -2.1345038, 1.1, 0.9, 1.1, 0.9
  1017,'',   115, 1, 1, 1, 1, 1.0006266, -14.803197, 1.1, 0.9, 1.1, 0.9
  1018,'',   115, 1, 1, 1, 1, 1.0061707, -12.942646, 1.1, 0.9, 1.1, 0.9
  1019,'',   115, 1, 1, 1, 1, 1.015, -15.422115, 1.1, 0.9, 1.1, 0.9
  1020,'',   115, 1, 1, 1, 1, 1.015, -0.4302346, 1.1, 0.9, 1.1, 0.9
  1021,'',  13.8, 2, 1, 1, 1, 1, 6.3453843, 1.1, 0.9, 1.1, 0.9
  1022,'',   115, 1, 1, 1, 1, 1.0153727, 0.065013347, 1.1, 0.9, 1.1, 0.9
  1023,'',  13.8, 2, 1, 1, 1, 1.01, 4.5750405, 1.1, 0.9, 1.1, 0.9
  1024,'',   115, 1, 1, 1, 1, 1.0048852, -11.462558, 1.1, 0.9, 1.1, 0.9
  1025,'',   115, 1, 1, 1, 1, 1.0177994, 0.85345893, 1.1, 0.9, 1.1, 0.9
  1026,'',  13.8, 2, 1, 1, 1, 1.03, 10.555302, 1.1, 0.9, 1.1, 0.9
  1027,'',   115, 1, 1, 1, 1, 1, -15.908383, 1.1, 0.9, 1.1, 0.9
  1028,'',   115, 1, 1, 1, 1, 1.0176503, 0.18505745, 1.1, 0.9, 1.1, 0.9
  1029,'',   115, 1, 1, 1, 1, 1.015, -15.432646, 1.1, 0.9, 1.1, 0.9
  1030,'',   115, 1, 1, 1, 1, 1.0250755, -10.725896, 1.1, 0.9, 1.1, 0.9
  1031,'',   115, 1, 1, 1, 1, 1.0310913, -14.526816, 1.1, 0.9, 1.1, 0.9
  1032,'',   115, 1, 1, 1, 1, 0.99478874, -8.5700654, 1.1, 0.9, 1.1, 0.9
  1033,'',   230, 2, 1, 1, 1, 1, -13.348336, 1.1, 0.9, 1.1, 0.9
  1034,'',   115, 1, 1, 1, 1, 1.0056044, -0.48847909, 1.1, 0.9, 1.1, 0.9
  1035,'',  13.8, 2, 1, 1, 1, 1, 2.7106566, 1.1, 0.9, 1.1, 0.9
  1036,'',   115, 1, 1, 1, 1, 0.99402928, -5.6816256, 1.1, 0.9, 1.1, 0.9
  1037,'',   115, 1, 1, 1, 1, 0.99780636, -15.909409, 1.1, 0.9, 1.1, 0.9
  1038,'',   115, 1, 1, 1, 1, 1.0125854, -5.7610378, 1.1, 0.9, 1.1, 0.9
  1039,'',    22, 2, 1, 1, 1, 1, -3.8576262, 1.1, 0.9, 1.1, 0.9
  1040,'',   115, 1, 1, 1, 1, 1.0059823, -12.593793, 1.1, 0.9, 1.1, 0.9
  1041,'',   115, 1, 1, 1, 1, 1.004581, -1.7560675, 1.1, 0.9, 1.1, 0.9
  1042,'',  13.8, 2, 1, 1, 1, 1.004581, -1.7560675, 1.1, 0.9, 1.1, 0.9
  1043,'',  13.8, 2, 1, 1, 1, 1.0202946, 0.041769976, 1.1, 0.9, 1.1, 0.9
  1044,'',   115, 1, 1, 1, 1, 1.0098332, -10.378923, 1.1, 0.9, 1.1, 0.9
  1045,'',   115, 1, 1, 1, 1, 0.99541269, -16.878008, 1.1, 0.9, 1.1, 0.9
  1046,'',   115, 1, 1, 1, 1, 1.0160515, -12.871402, 1.1, 0.9, 1.1, 0.9
  1047,'',   115, 1, 1, 1, 1, 1.0072572, -11.414435, 1.1, 0.9, 1.1, 0.9
  1048,'',    18, 2, 1, 1, 1, 1.0072572, -11.414435, 1.1, 0.9, 1.1, 0.9
  1049,'',    18, 2, 1, 1, 1, 1.0072572, -11.414435, 1.1, 0.9, 1.1, 0.9
  1050,'',    18, 2, 1, 1, 1, 1, -9.88174, 1.1, 0.9, 1.1, 0.9
  1051,'',    18, 2, 1, 1, 1, 1, -9.4337848, 1.1, 0.9, 1.1, 0.9
  1052,'',    18, 2, 1, 1, 1, 1.0002109, -10.133018, 1.1, 0.9, 1.1, 0.9
  1053,'',   230, 2, 1, 1, 1, 1.0101734, -12.696819, 1.1, 0.9, 1.1, 0.9
  1054,'',   115, 1, 1, 1, 1, 0.99988, -10.721689, 1.1, 0.9, 1.1, 0.9
  1055,'',   115, 1, 1, 1, 1, 1.0054636, -2.1244238, 1.1, 0.9, 1.1, 0.9
  1056,'',   115, 1, 1, 1, 1, 1.015, -11.880996, 1.1, 0.9, 1.1, 0.9
  1057,'',    18, 2, 1, 1, 1, 1.015, -11.880996, 1.1, 0.9, 1.1, 0.9
  1058,'',   115, 1, 1, 1, 1, 1.0207975, -7.1603767, 1.1, 0.9, 1.1, 0.9
  1059,'',    22, 2, 1, 1, 1, 1.0207975, -7.1603767, 1.1, 0.9, 1.1, 0.9
  1060,'',    22, 2, 1, 1, 1, 1.0207975, -7.1603767, 1.1, 0.9, 1.1, 0.9
  1061,'',   115, 1, 1, 1, 1, 1.0085455, -0.82666055, 1.1, 0.9, 1.1, 0.9
  1062,'',  13.8, 2, 1, 1, 1, 1.0085455, -0.82666055, 1.1, 0.9, 1.1, 0.9
  1063,'',  13.8, 2, 1, 1, 1, 1.0085455, -0.82666055, 1.1, 0.9, 1.1, 0.9
  1064,'',   115, 1, 1, 1, 1, 0.99318952, -17.403903, 1.1, 0.9, 1.1, 0.9
  1065,'',   115, 1, 1, 1, 1, 1.0047811, -2.2486102, 1.1, 0.9, 1.1, 0.9
  1066,'',  13.8, 2, 1, 1, 1, 1, 4.1388432, 1.1, 0.9, 1.1, 0.9
  1067,'',   115, 1, 1, 1, 1, 1.0018248, -1.5881429, 1.1, 0.9, 1.1, 0.9
  1068,'',   115, 1, 1, 1, 1, 0.99366559, -4.0019136, 1.1, 0.9, 1.1, 0.9
  1069,'',   115, 1, 1, 1, 1, 1.0220842, -5.6614757, 1.1, 0.9, 1.1, 0.9
  1070,'',  13.8, 2, 1, 1, 1, 1.04, -2.1170331, 1.1, 0.9, 1.1, 0.9
  1071,'',   115, 1, 1, 1, 1, 1.0092929, -15.645062, 1.1, 0.9, 1.1, 0.9
  1072,'',    18, 2, 1, 1, 1, 1.01, -12.865968, 1.1, 0.9, 1.1, 0.9
  1073,'',    18, 2, 1, 1, 1, 1.01, -11.018153, 1.1, 0.9, 1.1, 0.9
  1074,'',    18, 2, 1, 1, 1, 1.01, -11.60164, 1.1, 0.9, 1.1, 0.9
  1075,'',    18, 2, 1, 1, 1, 1.01, -12.410328, 1.1, 0.9, 1.1, 0.9
  1076,'',    18, 2, 1, 1, 1, 1.0092929, -15.645062, 1.1, 0.9, 1.1, 0.9
  1077,'',    18, 2, 1, 1, 1, 1.0092929, -15.645062, 1.1, 0.9, 1.1, 0.9
  1078,'',    18, 2, 1, 1, 1, 1.01, -12.566855, 1.1, 0.9, 1.1, 0.9
  1079,'',   500, 2, 1, 1, 1, 1.0388867, -21.54588, 1.1, 0.9, 1.1, 0.9
  1080,'',    18, 2, 1, 1, 1, 1.01, -12.381118, 1.1, 0.9, 1.1, 0.9
  1081,'',   230, 2, 1, 1, 1, 1.0098078, -13.132666, 1.1, 0.9, 1.1, 0.9
  1082,'',   115, 2, 1, 1, 1, 1.0179226, -3.2239639, 1.1, 0.9, 1.1, 0.9
  1083,'',   115, 1, 1, 1, 1, 1.015, -7.615958, 1.1, 0.9, 1.1, 0.9
  1084,'',   115, 2, 1, 1, 1, 1.0213429, -2.9392096, 1.1, 0.9, 1.1, 0.9
  1085,'',   115, 1, 1, 1, 1, 1.0110788, -11.451004, 1.1, 0.9, 1.1, 0.9
  1086,'',   115, 1, 1, 1, 1, 1.015, -13.464314, 1.1, 0.9, 1.1, 0.9
  1087,'',   115, 1, 1, 1, 1, 1.0207859, -10.069318, 1.1, 0.9, 1.1, 0.9
  1088,'',   115, 2, 1, 1, 1, 1, -2.1627327, 1.1, 0.9, 1.1, 0.9
  1089,'',   115, 1, 1, 1, 1, 0.98697449, -6.3935422, 1.1, 0.9, 1.1, 0.9
  1090,'',   115, 2, 1, 1, 1, 1.02, -8.5947834, 1.1, 0.9, 1.1, 0.9
  1091,'',   161, 1, 1, 1, 1, 1.0242424, -6.8654768, 1.1, 0.9, 1.1, 0.9
  2001,'',   161, 1, 1, 1, 1, 1.0286539, -36.313477, 1.1, 0.9, 1.1, 0.9
  2002,'',   500, 1, 1, 1, 1, 1.0298844, -36.214206, 1.1, 0.9, 1.1, 0.9
  2003,'',   161, 1, 1, 1, 1, 1.0258495, -37.268348, 1.1, 0.9, 1.1, 0.9
  2004,'',  13.8, 2, 1, 1, 1, 1.0298844, -36.214206, 1.1, 0.9, 1.1, 0.9
  2005,'',  13.8, 2, 1, 1, 1, 1.0298844, -36.214206, 1.1, 0.9, 1.1, 0.9
  2006,'',  13.8, 2, 1, 1, 1, 1.0298844, -36.214206, 1.1, 0.9, 1.1, 0.9
  2007,'',   161, 1, 1, 1, 1, 1.0273571, -36.107863, 1.1, 0.9, 1.1, 0.9
  2008,'',   161, 1, 1, 1, 1, 1.0279834, -7.048034, 1.1, 0.9, 1.1, 0.9
  2009,'',   161, 1, 1, 1, 1, 1, -21.811725, 1.1, 0.9, 1.1, 0.9
  2010,'',   161, 1, 1, 1, 1, 1.0179102, -11.323494, 1.1, 0.9, 1.1, 0.9
  2011,'',   500, 1, 1, 1, 1, 1.0391362, -7.8359317, 1.1, 0.9, 1.1, 0.9
  2012,'',   161, 1, 1, 1, 1, 1.0277324, -4.9389336, 1.1, 0.9, 1.1, 0.9
  2013,'',    18, 2, 1, 1, 1, 1.0311162, -5.997524, 1.1, 0.9, 1.1, 0.9
  2014,'',   161, 1, 1, 1, 1, 1.0276811, -7.6157633, 1.1, 0.9, 1.1, 0.9
  2015,'',   161, 1, 1, 1, 1, 1.0098619, -35.273268, 1.1, 0.9, 1.1, 0.9
  2016,'',   161, 1, 1, 1, 1, 1.0091664, -39.788737, 1.1, 0.9, 1.1, 0.9
  2017,'',   500, 1, 1, 1, 1, 1.0237437, -8.1866967, 1.1, 0.9, 1.1, 0.9
  2018,'',   161, 1, 1, 1, 1, 1.0227019, -7.0873915, 1.1, 0.9, 1.1, 0.9
  2019,'',    20, 2, 1, 1, 1, 1.0237437, -8.1866967, 1.1, 0.9, 1.1, 0.9
  2020,'',   161, 1, 1, 1, 1, 0.99864938, -22.987282, 1.1, 0.9, 1.1, 0.9
  2021,'',   500, 1, 1, 1, 1, 1.0308153, -34.798317, 1.1, 0.9, 1.1, 0.9
  2022,'',   161, 1, 1, 1, 1, 1.0312583, -35.65264, 1.1, 0.9, 1.1, 0.9
  2023,'',  13.8, 2, 1, 1, 1, 1.0278527, -34.334528, 1.1, 0.9, 1.1, 0.9
  2024,'',  13.8, 2, 1, 1, 1, 1.026557, -34.137303, 1.1, 0.9, 1.1, 0.9
  2025,'',   161, 1, 1, 1, 1, 0.99891072, -22.495616, 1.1, 0.9, 1.1, 0.9
  2026,'',   161, 1, 1, 1, 1, 1.0286018, -5.9883458, 1.1, 0.9, 1.1, 0.9
  2027,'',   161, 1, 1, 1, 1, 1.0303646, -36.491165, 1.1, 0.9, 1.1, 0.9
  2028,'',   161, 1, 1, 1, 1, 0.99686585, -24.253689, 1.1, 0.9, 1.1, 0.9
  2029,'',   161, 1, 1, 1, 1, 1.0294493, -7.4696838, 1.1, 0.9, 1.1, 0.9
  2030,'',   161, 1, 1, 1, 1, 1.0197801, -37.704199, 1.1, 0.9, 1.1, 0.9
  2031,'',   161, 1, 1, 1, 1, 1.0269906, -6.7194876, 1.1, 0.9, 1.1, 0.9
  2032,'',   161, 1, 1, 1, 1, 1.0283379, -35.864745, 1.1, 0.9, 1.1, 0.9
  2033,'',   161, 1, 1, 1, 1, 1.0207677, -38.101556, 1.1, 0.9, 1.1, 0.9
  2034,'',   161, 1, 1, 1, 1, 1.0100791, -39.638017, 1.1, 0.9, 1.1, 0.9
  2035,'',   161, 1, 1, 1, 1, 1.0231058, -7.6587552, 1.1, 0.9, 1.1, 0.9
  2036,'',   161, 1, 1, 1, 1, 0.99898134, -22.544581, 1.1, 0.9, 1.1, 0.9
  2037,'',   161, 1, 1, 1, 1, 1.0122721, -35.584203, 1.1, 0.9, 1.1, 0.9
  2038,'',   161, 1, 1, 1, 1, 1.0249988, -37.473252, 1.1, 0.9, 1.1, 0.9
  2039,'',   161, 1, 1, 1, 1, 1.0070797, -33.691376, 1.1, 0.9, 1.1, 0.9
  2040,'',   161, 1, 1, 1, 1, 1.0322147, -36.013763, 1.1, 0.9, 1.1, 0.9
  2041,'',   161, 1, 1, 1, 1, 1.0290038, -2.710024, 1.1, 0.9, 1.1, 0.9
  2042,'',    18, 2, 1, 1, 1, 1.0205387, -0.64243485, 1.1, 0.9, 1.1, 0.9
  2043,'',   161, 1, 1, 1, 1, 1.0096828, -39.715474, 1.1, 0.9, 1.1, 0.9
  2044,'',   161, 1, 1, 1, 1, 1.0151947, -37.009745, 1.1, 0.9, 1.1, 0.9
  2045,'',   161, 1, 1, 1, 1, 0.99800467, -23.275825, 1.1, 0.9, 1.1, 0.9
  2046,'',   161, 1, 1, 1, 1, 1.0106074, -39.522507, 1.1, 0.9, 1.1, 0.9
  2047,'',   161, 1, 1, 1, 1, 1.0231133, -37.686548, 1.1, 0.9, 1.1, 0.9
  2048,'',   161, 1, 1, 1, 1, 1.0268546, -7.7817357, 1.1, 0.9, 1.1, 0.9
  2049,'',   161, 1, 1, 1, 1, 1.0065538, -16.672785, 1.1, 0.9, 1.1, 0.9
  2050,'',   161, 1, 1, 1, 1, 1.0281928, -37.485921, 1.1, 0.9, 1.1, 0.9
  2051,'',   161, 1, 1, 1, 1, 0.99940812, -29.084835, 1.1, 0.9, 1.1, 0.9
  2052,'',   161, 1, 1, 1, 1, 1.0265527, -6.3448723, 1.1, 0.9, 1.1, 0.9
  2053,'',   161, 1, 1, 1, 1, 1.0107159, -33.370627, 1.1, 0.9, 1.1, 0.9
  2054,'',   500, 1, 1, 1, 1, 1.0013972, -22.151528, 1.1, 0.9, 1.1, 0.9
  2055,'',   161, 1, 1, 1, 1, 1.0000997, -22.489845, 1.1, 0.9, 1.1, 0.9
  2056,'',    18, 2, 1, 1, 1, 1.0013972, -22.151528, 1.1, 0.9, 1.1, 0.9
  2057,'',    18, 2, 1, 1, 1, 0.99065657, -20.489327, 1.1, 0.9, 1.1, 0.9
  2058,'',   161, 1, 1, 1, 1, 1.0308474, -1.8570994, 1.1, 0.9, 1.1, 0.9
  2059,'',  13.8, 2, 1, 1, 1, 1.0208596, 1.6654789, 1.1, 0.9, 1.1, 0.9
  2060,'',   161, 1, 1, 1, 1, 1.0270736, -36.922128, 1.1, 0.9, 1.1, 0.9
  2061,'',   161, 1, 1, 1, 1, 1.0166928, -12.711533, 1.1, 0.9, 1.1, 0.9
  2062,'',    18, 2, 1, 1, 1, 1.02, -10.218196, 1.1, 0.9, 1.1, 0.9
  2063,'',   161, 1, 1, 1, 1, 1.0119477, -39.270162, 1.1, 0.9, 1.1, 0.9
  2064,'',   161, 1, 1, 1, 1, 1.0290874, -36.297622, 1.1, 0.9, 1.1, 0.9
  2065,'',   161, 1, 1, 1, 1, 1.0103019, -36.648494, 1.1, 0.9, 1.1, 0.9
  2066,'',   161, 1, 1, 1, 1, 1.0220384, -5.8518529, 1.1, 0.9, 1.1, 0.9
  2067,'',   161, 1, 1, 1, 1, 0.99873629, -22.340483, 1.1, 0.9, 1.1, 0.9
  2068,'',   161, 1, 1, 1, 1, 1.0045536, -20.767482, 1.1, 0.9, 1.1, 0.9
  2069,'',   161, 1, 1, 1, 1, 1.015, -39.154657, 1.1, 0.9, 1.1, 0.9
  2070,'',   161, 1, 1, 1, 1, 1.0066132, -20.503883, 1.1, 0.9, 1.1, 0.9
  2071,'',    18, 2, 1, 1, 1, 1, -17.29203, 1.1, 0.9, 1.1, 0.9
  2072,'',   161, 1, 1, 1, 1, 1.0189252, -38.350138, 1.1, 0.9, 1.1, 0.9
  2073,'',   161, 1, 1, 1, 1, 1.0206941, -4.305366, 1.1, 0.9, 1.1, 0.9
  2074,'',   115, 1, 1, 1, 1, 1.010323, -2.8789345, 1.1, 0.9, 1.1, 0.9
  2075,'',   115, 1, 1, 1, 1, 1.010323, -2.8789345, 1.1, 0.9, 1.1, 0.9
  2076,'',    24, 2, 1, 1, 1, 1.0259499, -3.3754754, 1.1, 0.9, 1.1, 0.9
  2077,'',   161, 1, 1, 1, 1, 1.0147746, -34.395375, 1.1, 0.9, 1.1, 0.9
  2078,'',  13.8, 2, 1, 1, 1, 1.02, -33.581165, 1.1, 0.9, 1.1, 0.9
  2079,'',   161, 1, 1, 1, 1, 1.0232758, -9.9600079, 1.1, 0.9, 1.1, 0.9
  2080,'',   161, 1, 1, 1, 1, 1.0042667, -31.489733, 1.1, 0.9, 1.1, 0.9
  2081,'',   161, 1, 1, 1, 1, 1.0231654, -37.812858, 1.1, 0.9, 1.1, 0.9
  2082,'',   161, 1, 1, 1, 1, 0.99889163, -22.482124, 1.1, 0.9, 1.1, 0.9
  2083,'',    20, 2, 1, 1, 1, 1.0134696, -22.018657, 1.1, 0.9, 1.1, 0.9
  2084,'',    20, 2, 1, 1, 1, 0.99889163, -22.482124, 1.1, 0.9, 1.1, 0.9
  2085,'',    20, 2, 1, 1, 1, 0.99889163, -22.482124, 1.1, 0.9, 1.1, 0.9
  2086,'',   161, 1, 1, 1, 1, 1.00619, -32.861523, 1.1, 0.9, 1.1, 0.9
  2087,'',   161, 1, 1, 1, 1, 1.0245228, -5.5778147, 1.1, 0.9, 1.1, 0.9
  2088,'',   161, 1, 1, 1, 1, 1.0053824, -20.54063, 1.1, 0.9, 1.1, 0.9
  2089,'',    24, 2, 1, 1, 1, 1, -17.367709, 1.1, 0.9, 1.1, 0.9
  2090,'',   161, 1, 1, 1, 1, 1.0321613, -36.714968, 1.1, 0.9, 1.1, 0.9
  2091,'',   161, 1, 1, 1, 1, 1.0214838, -9.7709832, 1.1, 0.9, 1.1, 0.9
  2092,'',   161, 1, 1, 1, 1, 1.0171301, -38.521166, 1.1, 0.9, 1.1, 0.9
  2093,'',   161, 1, 1, 1, 1, 1.0257467, -5.9520707, 1.1, 0.9, 1.1, 0.9
  2094,'',  13.8, 2, 1, 1, 1, 1.0257467, -5.9520707, 1.1, 0.9, 1.1, 0.9
  2095,'',  13.8, 2, 1, 1, 1, 1.0257467, -5.9520707, 1.1, 0.9, 1.1, 0.9
  2096,'',   500, 1, 1, 1, 1, 1, -4.4349922, 1.1, 0.9, 1.1, 0.9
  2097,'',   230, 1, 1, 1, 1, 1.0029446, -4.2058278, 1.1, 0.9, 1.1, 0.9
  2098,'',   161, 1, 1, 1, 1, 1.0221891, -6.4236404, 1.1, 0.9, 1.1, 0.9
  2099,'',    18, 2, 1, 1, 1, 1.0007635, -4.2422642, 1.1, 0.9, 1.1, 0.9
  2100,'',    18, 2, 1, 1, 1, 1.0125941, -0.95020545, 1.1, 0.9, 1.1, 0.9
  2101,'',   500, 1, 1, 1, 1, 1.0287613, -36.458786, 1.1, 0.9, 1.1, 0.9
  2102,'',   161, 1, 1, 1, 1, 1.0254087, -37.004172, 1.1, 0.9, 1.1, 0.9
  2103,'',    20, 2, 1, 1, 1, 1.0287613, -36.458786, 1.1, 0.9, 1.1, 0.9
  2104,'',    20, 2, 1, 1, 1, 1.0287613, -36.458786, 1.1, 0.9, 1.1, 0.9
  2105,'',    20, 2, 1, 1, 1, 1.0287613, -36.458786, 1.1, 0.9, 1.1, 0.9
  2106,'',   161, 1, 1, 1, 1, 1.0182684, -38.290604, 1.1, 0.9, 1.1, 0.9
  2107,'',   161, 1, 1, 1, 1, 1.0225977, -37.335712, 1.1, 0.9, 1.1, 0.9
  2108,'',   161, 1, 1, 1, 1, 1.0162763, -21.521398, 1.1, 0.9, 1.1, 0.9
  2109,'',   161, 1, 1, 1, 1, 0.997017, -22.98659, 1.1, 0.9, 1.1, 0.9
...
0 / END OF BUS DATA, BEGIN LOAD DATA
1001, '1', 1, 1, 1, 14.42, 4.086, 0, 0, 0, 0, 1, 1, 0
1002, '1', 1, 1, 1, 10.695, 3.03, 0, 0, 0, 0, 1, 1, 0
1007, '1', 1, 1, 1, 4.863, 1.378, 0, 0, 0, 0, 1, 1, 0
1012, '1', 1, 1, 1, 2.071, 0.587, 0, 0, 0, 0, 1, 1, 0
1013, '1', 1, 1, 1, 20.279, 5.745, 0, 0, 0, 0, 1, 1, 0
1014, '1', 1, 1, 1, 1.54, 0.436, 0, 0, 0, 0, 1, 1, 0
1015, '1', 1, 1, 1, 5.21, 1.476, 0, 0, 0, 0, 1, 1, 0
1016, '1', 1, 1, 1, 2.005, 0.568, 0, 0, 0, 0, 1, 1, 0
1017, '1', 1, 1, 1, 12.729, 3.607, 0, 0, 0, 0, 1, 1, 0
1018, '1', 1, 1, 1, 0.048, 0.014, 0, 0, 0, 0, 1, 1, 0
1019, '1', 1, 1, 1, 42.865, 12.145, 0, 0, 0, 0, 1, 1, 0
1024, '1', 1, 1, 1, 43.742, 12.393, 0, 0, 0, 0, 1, 1, 0
1027, '1', 1, 1, 1, 70.228, 19.898, 0, 0, 0, 0, 1, 1, 0
1028, '1', 1, 1, 1, 6.948, 1.968, 0, 0, 0, 0, 1, 1, 0
1029, '1', 1, 1, 1, 57.72, 16.354, 0, 0, 0, 0, 1, 1, 0
1030, '1', 1, 1, 1, 17.088, 4.842, 0, 0, 0, 0, 1, 1, 0
1031, '1', 1, 1, 1, 6.416, 1.818, 0, 0, 0, 0, 1, 1, 0
1036, '1', 1, 1, 1, 9.434, 2.673, 0, 0, 0, 0, 1, 1, 0
1037, '1', 1, 1, 1, 70.94, 20.1, 0, 0, 0, 0, 1, 1, 0
1040, '1', 1, 1, 1, 30.779, 8.721, 0, 0, 0, 0, 1, 1, 0
1044, '1', 1, 1, 1, 10.188, 2.886, 0, 0, 0, 0, 1, 1, 0
1045, '1', 1, 1, 1, 68.39, 19.377, 0, 0, 0, 0, 1, 1, 0
1046, '1', 1, 1, 1, 7.692, 2.179, 0, 0, 0, 0, 1, 1, 0
1054, '1', 1, 1, 1, 10.399, 2.946, 0, 0, 0, 0, 1, 1, 0
1055, '1', 1, 1, 1, 2.76, 0.782, 0, 0, 0, 0, 1, 1, 0
1058, '1', 1, 1, 1, 9.336, 2.645, 0, 0, 0, 0, 1, 1, 0
1064, '1', 1, 1, 1, 85.874, 24.331, 0, 0, 0, 0, 1, 1, 0
1067, '1', 1, 1, 1, 70.464, 19.965, 0, 0, 0, 0, 1, 1, 0
1068, '1', 1, 1, 1, 41.219, 11.679, 0, 0, 0, 0, 1, 1, 0
1071, '1', 1, 1, 1, 63.465, 17.982, 0, 0, 0, 0, 1, 1, 0
1083, '1', 1, 1, 1, 27.717, 7.853, 0, 0, 0, 0, 1, 1, 0
1085, '1', 1, 1, 1, 14.778, 4.187, 0, 0, 0, 0, 1, 1, 0
1086, '1', 1, 1, 1, 27.528, 7.8, 0, 0, 0, 0, 1, 1, 0
1087, '1', 1, 1, 1, 0.631, 0.179, 0, 0, 0, 0, 1, 1, 0
1089, '1', 1, 1, 1, 28.175, 7.983, 0, 0, 0, 0, 1, 1, 0
1091, '1', 1, 1, 1, 8.064, 2.285, 0, 0, 0, 0, 1, 1, 0
2001, '1', 1, 1, 1, 26.29, 7.449, 0, 0, 0, 0, 1, 1, 0
2007, '1', 1, 1, 1, 5.187, 1.47, 0, 0, 0, 0, 1, 1, 0
2008, '1', 1, 1, 1, 4.383, 1.242, 0, 0, 0, 0, 1, 1, 0
2009, '1', 1, 1, 1, 21.277, 6.028, 0, 0, 0, 0, 1, 1, 0
2010, '1', 1, 1, 1, 30.884, 8.751, 0, 0, 0, 0, 1, 1, 0
2014, '1', 1, 1, 1, 13.824, 3.917, 0, 0, 0, 0, 1, 1, 0
2015, '1', 1, 1, 1, 2.548, 0.722, 0, 0, 0, 0, 1, 1, 0
2016, '1', 1, 1, 1, 37.659, 10.67, 0, 0, 0, 0, 1, 1, 0
2020, '1', 1, 1, 1, 26.082, 7.39, 0, 0, 0, 0, 1, 1, 0
2022, '1', 1, 1, 1, 6.288, 1.781, 0, 0, 0, 0, 1, 1, 0
2025, '1', 1, 1, 1, 21.539, 6.103, 0, 0, 0, 0, 1, 1, 0
2026, '1', 1, 1, 1, 10.096, 2.861, 0, 0, 0, 0, 1, 1, 0
2027, '1', 1, 1, 1, 1.933, 0.548, 0, 0, 0, 0, 1, 1, 0
2028, '1', 1, 1, 1, 7.741, 2.193, 0, 0, 0, 0, 1, 1, 0
2029, '1', 1, 1, 1, 1.74, 0.493, 0, 0, 0, 0, 1, 1, 0
2030, '1', 1, 1, 1, 25.632, 7.263, 0, 0, 0, 0, 1, 1, 0
2031, '1', 1, 1, 1, 3.135, 0.888, 0, 0, 0, 0, 1, 1, 0
2032, '1', 1, 1, 1, 1.823, 0.517, 0, 0, 0, 0, 1, 1, 0
2033, '1', 1, 1, 1, 7.379, 2.091, 0, 0, 0, 0, 1, 1, 0
2034, '1', 1, 1, 1, 2.903, 0.823, 0, 0, 0, 0, 1, 1, 0
2035, '1', 1, 1, 1, 2.546, 0.721, 0, 0, 0, 0, 1, 1, 0
2036, '1', 1, 1, 1, 22.609, 6.406, 0, 0, 0, 0, 1, 1, 0
2037, '1', 1, 1, 1, 1.903, 0.539, 0, 0, 0, 0, 1, 1, 0
2038, '1', 1, 1, 1, 1.416, 0.401, 0, 0, 0, 0, 1, 1, 0
2039, '1', 1, 1, 1, 3.022, 0.856, 0, 0, 0, 0, 1, 1, 0
2040, '1', 1, 1, 1, 8.646, 2.45, 0, 0, 0, 0, 1, 1, 0
2043, '1', 1, 1, 1, 2.303, 0.653, 0, 0, 0, 0, 1, 1, 0
2044, '1', 1, 1, 1, 14.899, 4.222, 0, 0, 0, 0, 1, 1, 0
2045, '1', 1, 1, 1, 12.29, 3.482, 0, 0, 0, 0, 1, 1, 0
2046, '1', 1, 1, 1, 12.034, 3.41, 0, 0, 0, 0, 1, 1, 0
2047, '1', 1, 1, 1, 8.131, 2.303, 0, 0, 0, 0, 1, 1, 0
2048, '1', 1, 1, 1, 3.489, 0.988, 0, 0, 0, 0, 1, 1, 0
2049, '1', 1, 1, 1, 6.291, 1.782, 0, 0, 0, 0, 1, 1, 0
2050, '1', 1, 1, 1, 1.988, 0.563, 0, 0, 0, 0, 1, 1, 0
2051, '1', 1, 1, 1, 9.705, 2.75, 0, 0, 0, 0, 1, 1, 0
2052, '1', 1, 1, 1, 13.504, 3.826, 0, 0, 0, 0, 1, 1, 0
2053, '1', 1, 1, 1, 15.839, 4.488, 0, 0, 0, 0, 1, 1, 0
2055, '1', 1, 1, 1, 26.977, 7.644, 0, 0, 0, 0, 1, 1, 0
2060, '1', 1, 1, 1, 2.063, 0.585, 0, 0, 0, 0, 1, 1, 0
2063, '1', 1, 1, 1, 35.674, 10.108, 0, 0, 0, 0, 1, 1, 0
2064, '1', 1, 1, 1, 5.462, 1.548, 0, 0, 0, 0, 1, 1, 0
2065, '1', 1, 1, 1, 42.602, 12.071, 0, 0, 0, 0, 1, 1, 0
2066, '1', 1, 1, 1, 3.867, 1.095, 0, 0, 0, 0, 1, 1, 0
2067, '1', 1, 1, 1, 29.341, 8.313, 0, 0, 0, 0, 1, 1, 0
2068, '1', 1, 1, 1, 3.132, 0.887, 0, 0, 0, 0, 1, 1, 0
2069, '1', 1, 1, 1, 11.92, 3.377, 0, 0, 0, 0, 1, 1, 0
2072, '1', 1, 1, 1, 5.276, 1.495, 0, 0, 0, 0, 1, 1, 0
2079, '1', 1, 1, 1, 2.435, 0.69, 0, 0, 0, 0, 1, 1, 0
2080, '1', 1, 1, 1, 9.206, 2.608, 0, 0, 0, 0, 1, 1, 0
2081, '1', 1, 1, 1, 2.427, 0.688, 0, 0, 0, 0, 1, 1, 0
2082, '1', 1, 1, 1, 32.094, 9.093, 0, 0, 0, 0, 1, 1, 0
2086, '1', 1, 1, 1, 1.192, 0.338, 0, 0, 0, 0, 1, 1, 0
2087, '1', 1, 1, 1, 4.293, 1.216, 0, 0, 0, 0, 1, 1, 0
2090, '1', 1, 1, 1, 1.318, 0.373, 0, 0, 0, 0, 1, 1, 0
2091, '1', 1, 1, 1, 9.268, 2.626, 0, 0, 0, 0, 1, 1, 0
2092, '1', 1, 1, 1, 13.107, 3.714, 0, 0, 0, 0, 1, 1, 0
2106, '1', 1, 1, 1, 7.831, 2.219, 0, 0, 0, 0, 1, 1, 0
2107, '1', 1, 1, 1, 40.314, 11.422, 0, 0, 0, 0, 1, 1, 0
2108, '1', 1, 1, 1, 1.166, 0.33, 0, 0, 0, 0, 1, 1, 0
2109, '1', 1, 1, 1, 18.382, 5.208, 0, 0, 0, 0, 1, 1, 0
2110, '1', 1, 1, 1, 4.67, 1.323, 0, 0, 0, 0, 1, 1, 0
2111, '1', 1, 1, 1, 7.586, 2.15, 0, 0, 0, 0, 1, 1, 0
2112, '1', 1, 1, 1, 2.469, 0.7, 0, 0, 0, 0, 1, 1, 0
2114, '1', 1, 1, 1, 38.479, 10.902, 0, 0, 0, 0, 1, 1, 0
2121, '1', 1, 1, 1, 1.269, 0.36, 0, 0, 0, 0, 1, 1, 0
2122, '1', 1, 1, 1, 3.655, 1.036, 0, 0, 0, 0, 1, 1, 0
2124, '1', 1, 1, 1, 11.572, 3.279, 0, 0, 0, 0, 1, 1, 0
2125, '1', 1, 1, 1, 2.205, 0.625, 0, 0, 0, 0, 1, 1, 0
2126, '1', 1, 1, 1, 7.739, 2.193, 0, 0, 0, 0, 1, 1, 0
2129, '1', 1, 1, 1, 3.606, 1.022, 0, 0, 0, 0, 1, 1, 0
2132, '1', 1, 1, 1, 6.491, 1.839, 0, 0, 0, 0, 1, 1, 0
2133, '1', 1, 1, 1, 3.088, 0.875, 0, 0, 0, 0, 1, 1, 0
3002, '1', 1, 1, 1, 62.176, 17.617, 0, 0, 0, 0, 1, 1, 0
3005, '1', 1, 1, 1, 4.044, 1.146, 0, 0, 0, 0, 1, 1, 0
3006, '1', 1, 1, 1, 4.048, 1.147, 0, 0, 0, 0, 1, 1, 0
3007, '1', 1, 1, 1, 8.244, 2.336, 0, 0, 0, 0, 1, 1, 0
3008, '1', 1, 1, 1, 10.913, 3.092, 0, 0, 0, 0, 1, 1, 0
3009, '1', 1, 1, 1, 6.908, 1.957, 0, 0, 0, 0, 1, 1, 0
3010, '1', 1, 1, 1, 2.573, 0.729, 0, 0, 0, 0, 1, 1, 0
3011, '1', 1, 1, 1, 14.951, 4.236, 0, 0, 0, 0, 1, 1, 0
3012, '1', 1, 1, 1, 0.311, 0.088, 0, 0, 0, 0, 1, 1, 0
3013, '1', 1, 1, 1, 35.565, 10.077, 0, 0, 0, 0, 1, 1, 0
3014, '1', 1, 1, 1, 12.121, 3.434, 0, 0, 0, 0, 1, 1, 0
3015, '1', 1, 1, 1, 2.955, 0.837, 0, 0, 0, 0, 1, 1, 0
3021, '1', 1, 1, 1, 1.069, 0.303, 0, 0, 0, 0, 1, 1, 0
3022, '1', 1, 1, 1, 13.547, 3.838, 0, 0, 0, 0, 1, 1, 0
3023, '1', 1, 1, 1, 5.733, 1.624, 0, 0, 0, 0, 1, 1, 0
3024, '1', 1, 1, 1, 5.581, 1.581, 0, 0, 0, 0, 1, 1, 0
3025, '1', 1, 1, 1, 7.533, 2.134, 0, 0, 0, 0, 1, 1, 0
3029, '1', 1, 1, 1, 2.681, 0.76, 0, 0, 0, 0, 1, 1, 0
3030, '1', 1, 1, 1, 71.464, 20.248, 0, 0, 0, 0, 1, 1, 0
3031, '1', 1, 1, 1, 8.117, 2.3, 0, 0, 0, 0, 1, 1, 0
3032, '1', 1, 1, 1, 40.142, 11.373, 0, 0, 0, 0, 1, 1, 0
3035, '1', 1, 1, 1, 1.909, 0.541, 0, 0, 0, 0, 1, 1, 0
3036, '1', 1, 1, 1, 3.197, 0.906, 0, 0, 0, 0, 1, 1, 0
3040, '1', 1, 1, 1, 8.047, 2.28, 0, 0, 0, 0, 1, 1, 0
3042, '1', 1, 1, 1, 4.822, 1.366, 0, 0, 0, 0, 1, 1, 0
3049, '1', 1, 1, 1, 5.831, 1.652, 0, 0, 0, 0, 1, 1, 0
3051, '1', 1, 1, 1, 80.042, 22.679, 0, 0, 0, 0, 1, 1, 0
3052, '1', 1, 1, 1, 4.449, 1.261, 0, 0, 0, 0, 1, 1, 0
3066, '1', 1, 1, 1, 12.139, 3.439, 0, 0, 0, 0, 1, 1, 0
3069, '1', 1, 1, 1, 2.101, 0.595, 0, 0, 0, 0, 1, 1, 0
3072, '1', 1, 1, 1, 3.297, 0.934, 0, 0, 0, 0, 1, 1, 0
3075, '1', 1, 1, 1, 6.712, 1.902, 0, 0, 0, 0, 1, 1, 0
3076, '1', 1, 1, 1, 5.947, 1.685, 0, 0, 0, 0, 1, 1, 0
3077, '1', 1, 1, 1, 37.823, 10.716, 0, 0, 0, 0, 1, 1, 0
3093, '1', 1, 1, 1, 2.78, 0.788, 0, 0, 0, 0, 1, 1, 0
3099, '1', 1, 1, 1, 6.654, 1.885, 0, 0, 0, 0, 1, 1, 0
3100, '1', 1, 1, 1, 4.697, 1.331, 0, 0, 0, 0, 1, 1, 0
3101, '1', 1, 1, 1, 5.197, 1.472, 0, 0, 0, 0, 1, 1, 0
3102, '1', 1, 1, 1, 41.459, 11.747, 0, 0, 0, 0, 1, 1, 0
3103, '1', 1, 1, 1, 21.66, 6.137, 0, 0, 0, 0, 1, 1, 0
3107, '1', 1, 1, 1, 8.191, 2.321, 0, 0, 0, 0, 1, 1, 0
3108, '1', 1, 1, 1, 12.959, 3.672, 0, 0, 0, 0, 1, 1, 0
3114, '1', 1, 1, 1, 54.158, 15.345, 0, 0, 0, 0, 1, 1, 0
3115, '1', 1, 1, 1, 5.275, 1.494, 0, 0, 0, 0, 1, 1, 0
3123, '1', 1, 1, 1, 36.397, 10.312, 0, 0, 0, 0, 1, 1, 0
3124, '1', 1, 1, 1, 35.555, 10.074, 0, 0, 0, 0, 1, 1, 0
3125, '1', 1, 1, 1, 50.275, 14.244, 0, 0, 0, 0, 1, 1, 0
3126, '1', 1, 1, 1, 5.485, 1.554, 0, 0, 0, 0, 1, 1, 0
3128, '1', 1, 1, 1, 1.554, 0.44, 0, 0, 0, 0, 1, 1, 0
3130, '1', 1, 1, 1, 50.768, 14.384, 0, 0, 0, 0, 1, 1, 0
3132, '1', 1, 1, 1, 5.269, 1.493, 0, 0, 0, 0, 1, 1, 0
3136, '1', 1, 1, 1, 25.869, 7.329, 0, 0, 0, 0, 1, 1, 0
3138, '1', 1, 1, 1, 6.031, 1.709, 0, 0, 0, 0, 1, 1, 0
3139, '1', 1, 1, 1, 8.217, 2.328, 0, 0, 0, 0, 1, 1, 0
3140, '1', 1, 1, 1, 0.122, 0.035, 0, 0, 0, 0, 1, 1, 0
3142, '1', 1, 1, 1, 3.894, 1.103, 0, 0, 0, 0, 1, 1, 0
3143, '1', 1, 1, 1, 3.17, 0.898, 0, 0, 0, 0, 1, 1, 0
3144, '1', 1, 1, 1, 3.061, 0.868, 0, 0, 0, 0, 1, 1, 0
3145, '1', 1, 1, 1, 1.62, 0.459, 0, 0, 0, 0, 1, 1, 0
3146, '1', 1, 1, 1, 6.63, 1.879, 0, 0, 0, 0, 1, 1, 0
3147, '1', 1, 1, 1, 19.149, 5.425, 0, 0, 0, 0, 1, 1, 0
4002, '1', 1, 1, 1, 0.61, 0.173, 0, 0, 0, 0, 1, 1, 0
4003, '1', 1, 1, 1, 77.07, 21.837, 0, 0, 0, 0, 1, 1, 0
4005, '1', 1, 1, 1, 99.379, 28.157, 0, 0, 0, 0, 1, 1, 0
4006, '1', 1, 1, 1, 1.667, 0.472, 0, 0, 0, 0, 1, 1, 0
4007, '1', 1, 1, 1, 111.196, 31.506, 0, 0, 0, 0, 1, 1, 0
4008, '1', 1, 1, 1, 19.673, 5.574, 0, 0, 0, 0, 1, 1, 0
4011, '1', 1, 1, 1, 9.718, 2.753, 0, 0, 0, 0, 1, 1, 0
4012, '1', 1, 1, 1, 8.319, 2.357, 0, 0, 0, 0, 1, 1, 0
4013, '1', 1, 1, 1, 55.913, 15.842, 0, 0, 0, 0, 1, 1, 0
4015, '1', 1, 1, 1, 96.756, 27.414, 0, 0, 0, 0, 1, 1, 0
4016, '1', 1, 1, 1, 3.782, 1.071, 0, 0, 0, 0, 1, 1, 0
4017, '1', 1, 1, 1, 54.226, 15.364, 0, 0, 0, 0, 1, 1, 0
4018, '1', 1, 1, 1, 4.321, 1.224, 0, 0, 0, 0, 1, 1, 0
4019, '1', 1, 1, 1, 82.237, 23.301, 0, 0, 0, 0, 1, 1, 0
4020, '1', 1, 1, 1, 71.33, 20.21, 0, 0, 0, 0, 1, 1, 0
4021, '1', 1, 1, 1, 19.357, 5.484, 0, 0, 0, 0, 1, 1, 0
4022, '1', 1, 1, 1, 3.369, 0.955, 0, 0, 0, 0, 1, 1, 0
4023, '1', 1, 1, 1, 3.066, 0.869, 0, 0, 0, 0, 1, 1, 0
4027, '1', 1, 1, 1, 39.426, 11.171, 0, 0, 0, 0, 1, 1, 0
4031, '1', 1, 1, 1, 1.664, 0.471, 0, 0, 0, 0, 1, 1, 0
4032, '1', 1, 1, 1, 55.332, 15.677, 0, 0, 0, 0, 1, 1, 0
4033, '1', 1, 1, 1, 76.438, 21.657, 0, 0, 0, 0, 1, 1, 0
4034, '1', 1, 1, 1, 22.79, 6.457, 0, 0, 0, 0, 1, 1, 0
4035, '1', 1, 1, 1, 47.928, 13.58, 0, 0, 0, 0, 1, 1, 0
4036, '1', 1, 1, 1, 21.234, 6.017, 0, 0, 0, 0, 1, 1, 0
4037, '1', 1, 1, 1, 17.39, 4.927, 0, 0, 0, 0, 1, 1, 0
4038, '1', 1, 1, 1, 50.437, 14.29, 0, 0, 0, 0, 1, 1, 0
4040, '1', 1, 1, 1, 136.629, 38.711, 0, 0, 0, 0, 1, 1, 0
4042, '1', 1, 1, 1, 130.28, 36.913, 0, 0, 0, 0, 1, 1, 0
4043, '1', 1, 1, 1, 1.498, 0.425, 0, 0, 0, 0, 1, 1, 0
4048, '1', 1, 1, 1, 7.934, 2.248, 0, 0, 0, 0, 1, 1, 0
...
0 / END OF LOAD DATA, BEGIN FIXED SHUNT DATA
0 / END OF FIXED SHUNT DATA, BEGIN GENERATOR DATA
1004, '1', 94.431752, -30.38, 44.94, -30.38, 1.0121304, 0, 0, 0, 1.0, 0, 0, 1, 1, 1, 164.2, 0, 1, 1, 0, 1, 0, 1, 0, 1, 0, 1
1006, '1', 28.7, -4.94, 7.31, -4.94, 1.0027478, 0, 0, 0, 1.0, 0, 0, 1, 1, 1, 28.7, 0, 1, 1, 0, 1, 0, 1, 0, 1, 0, 1
1009, '1', 5.2335233, -11.88, 17.57, -11.88, 1.0024653, 0, 0, 0, 1.0, 0, 0, 1, 1, 1, 26, 0, 1, 1, 0, 1, 0, 1, 0, 1, 0, 1
1011, '1', 0, 0, 0, 0, 1.0495051, 0, 0, 0, 1.0, 0, 0, 1, 1, 1, 0, 0, 1, 1, 0, 1, 0, 1, 0, 1, 0, 1
1021, '1', 152.6, -28.73, 42.49, -28.73, 1, 0, 0, 0, 1.0, 0, 0, 1, 1, 1, 152.6, 0, 1, 1, 0, 1, 0, 1, 0, 1, 0, 1
1023, '1', 68.5, -25.92, 38.34, -25.92, 1.01, 0, 0, 0, 1.0, 0, 0, 1, 1, 1, 68.5, 0, 1, 1, 0, 1, 0, 1, 0, 1, 0, 1
1026, '1', 98.2, -17.88, 26.45, -17.88, 1.03, 0, 0, 0, 1.0, 0, 0, 1, 1, 1, 98.2, 0, 1, 1, 0, 1, 0, 1, 0, 1, 0, 1
1033, '1', 1.1, -40.03, 59.21, -40.03, 1, 0, 0, 0, 1.0, 0, 0, 1, 1, 1, 1.1, 0, 1, 1, 0, 1, 0, 1, 0, 1, 0, 1
1035, '1', 65.634255, -12.96, 19.17, -12.96, 1, 0, 0, 0, 1.0, 0, 0, 1, 1, 1, 74.1, 0, 1, 1, 0, 1, 0, 1, 0, 1, 0, 1
1039, '1', 38.8, -21.24, 31.42, -21.24, 1, 0, 0, 0, 1.0, 0, 0, 1, 1, 1, 38.8, 0, 1, 1, 0, 1, 0, 1, 0, 1, 0, 1
1042, '1', 30.405, 25.96, 25.96, -17.55, 1.0042517, 0, 0, 0, 1.0, 0, 0, 1, 0, 1, 111.2, 0, 1, 1, 0, 1, 0, 1, 0, 1, 0, 1
1043, '1', 25.323024, -8.47, 12.52, -8.47, 1.0202946, 0, 0, 0, 1.0, 0, 0, 1, 1, 1, 53.6, 0, 1, 1, 0, 1, 0, 1, 0, 1, 0, 1
1048, '1', 107.593, -9.675, 165.53, -36.1, 1.0073431, 0, 0, 0, 1.0, 0, 0, 1, 0, 1, 325.2, 97.56, 1, 1, 0, 1, 0, 1, 0, 1, 0, 1
1049, '1', 131.489, 0.351, 165.53, -36.1, 1.0073431, 0, 0, 0, 1.0, 0, 0, 1, 0, 1, 325.2, 97.56, 1, 1, 0, 1, 0, 1, 0, 1, 0, 1
1050, '1', 26.856327, -9.92, 45.5, -9.92, 1, 0, 0, 0, 1.0, 0, 0, 1, 1, 1, 89.4, 26.82, 1, 1, 0, 1, 0, 1, 0, 1, 0, 1
1051, '1', 26.856327, -9.92, 45.5, -9.92, 1, 0, 0, 0, 1.0, 0, 0, 1, 1, 1, 89.4, 26.82, 1, 1, 0, 1, 0, 1, 0, 1, 0, 1
1052, '1', 26.856327, -9.92, 45.5, -9.92, 1.0002109, 0, 0, 0, 1.0, 0, 0, 1, 1, 1, 89.4, 26.82, 1, 1, 0, 1, 0, 1, 0, 1, 0, 1
1053, '1', 54.26, -19.85, 91.01, -19.85, 1.0101813, 0, 0, 0, 1.0, 0, 0, 1, 0, 1, 178.8, 53.64, 1, 1, 0, 1, 0, 1, 0, 1, 0, 1
1057, '1', 105.912, 8.457, 25.56, -17.28, 1.015, 0, 0, 0, 1.0, 0, 0, 1, 0, 1, 106.1, 0, 1, 1, 0, 1, 0, 1, 0, 1, 0, 1
1059, '1', 0, 2.85, 2.85, -0.62, 1.0206138, 0, 0, 0, 1.0, 0, 0, 1, 0, 1, 5.6, 1.68, 1, 1, 0, 1, 0, 1, 0, 1, 0, 1
1060, '1', 0, 1.02, 1.02, -0.22, 1.0206138, 0, 0, 0, 1.0, 0, 0, 1, 0, 1, 2, 0.6, 1, 1, 0, 1, 0, 1, 0, 1, 0, 1
1062, '1', 1.498, 0, 0, 0, 1.0086953, 0, 0, 0, 1.0, 0, 0, 1, 0, 1, 1.5, 0.45, 1, 1, 0, 1, 0, 1, 0, 1, 0, 1
1063, '1', 69, 0, 0, 0, 1.0086953, 0, 0, 0, 1.0, 0, 0, 1, 0, 1, 230, 69, 1, 1, 0, 1, 0, 1, 0, 1, 0, 1
1066, '1', 90.664476, -20.52, 30.35, -20.52, 1, 0, 0, 0, 1.0, 0, 0, 1, 1, 1, 100.8, 0, 1, 1, 0, 1, 0, 1, 0, 1, 0, 1
1070, '1', 94.961036, -23.11, 34.19, -23.11, 1.04, 0, 0, 0, 1.0, 0, 0, 1, 1, 1, 152.3, 0, 1, 1, 0, 1, 0, 1, 0, 1, 0, 1
1072, '1', 57.718071, -21.33, 97.8, -21.33, 1.01, 0, 0, 0, 1.0, 0, 0, 1, 1, 1, 192.13, 57.64, 1, 1, 0, 1, 0, 1, 0, 1, 0, 1
1073, '1', 57.718071, -21.33, 97.8, -21.33, 1.01, 0, 0, 0, 1.0, 0, 0, 1, 1, 1, 192.13, 57.64, 1, 1, 0, 1, 0, 1, 0, 1, 0, 1
1074, '1', 57.718071, -21.33, 97.8, -21.33, 1.01, 0, 0, 0, 1.0, 0, 0, 1, 1, 1, 192.13, 57.64, 1, 1, 0, 1, 0, 1, 0, 1, 0, 1
1075, '1', 57.718071, -21.33, 97.8, -21.33, 1.01, 0, 0, 0, 1.0, 0, 0, 1, 1, 1, 192.13, 57.64, 1, 1, 0, 1, 0, 1, 0, 1, 0, 1
1076, '1', 95.278, 29.129, 97.8, -21.33, 1.0094493, 0, 0, 0, 1.0, 0, 0, 1, 0, 1, 192.13, 57.64, 1, 1, 0, 1, 0, 1, 0, 1, 0, 1
1077, '1', 118.881, 21.47, 97.8, -21.33, 1.0094493, 0, 0, 0, 1.0, 0, 0, 1, 0, 1, 192.13, 57.64, 1, 1, 0, 1, 0, 1, 0, 1, 0, 1
1078, '1', 28.688806, -10.6, 48.61, -10.6, 1.01, 0, 0, 0, 1.0, 0, 0, 1, 1, 1, 95.5, 28.65, 1, 1, 0, 1, 0, 1, 0, 1, 0, 1
1079, '1', 28.688806, -10.6, 48.61, -10.6, 1.0388867, 0, 0, 0, 1.0, 0, 0, 1, 1, 1, 95.5, 28.65, 1, 1, 0, 1, 0, 1, 0, 1, 0, 1
1080, '1', 28.688806, -10.6, 48.61, -10.6, 1.01, 0, 0, 0, 1.0, 0, 0, 1, 1, 1, 95.5, 28.65, 1, 1, 0, 1, 0, 1, 0, 1, 0, 1
1081, '1', 115.841, 37.388, 145.83, -31.8, 1.0098078, 0, 0, 0, 1.0, 0, 0, 1, 0, 1, 286.5, 85.95, 1, 1, 0, 1, 0, 1, 0, 1, 0, 1
1082, '1', 133.7, -21.6, 31.95, -21.6, 1.0179144, 0, 0, 0, 1.0, 0, 0, 1, 1, 1, 133.7, 0, 1, 1, 0, 1, 0, 1, 0, 1, 0, 1
1084, '1', 92.5, -16.63, 24.6, -16.63, 1.0215306, 0, 0, 0, 1.0, 0, 0, 1, 1, 1, 92.5, 0, 1, 1, 0, 1, 0, 1, 0, 1, 0, 1
1088, '1', 70.3, -10.8, 15.97, -10.8, 1, 0, 0, 0, 1.0, 0, 0, 1, 1, 1, 70.3, 0, 1, 1, 0, 1, 0, 1, 0, 1, 0, 1
1090, '1', 141.2, -21.96, 32.48, -21.96, 1.02, 0, 0, 0, 1.0, 0, 0, 1, 1, 1, 141.2, 0, 1, 1, 0, 1, 0, 1, 0, 1, 0, 1
1090, '2', 33.3, -5.18, 7.67, -5.18, 1.02, 0, 0, 0, 1.0, 0, 0, 1, 1, 1, 33.3, 0, 1, 1, 0, 1, 0, 1, 0, 1, 0, 1
2004, '1', 117.54, -7.096, 199.43, -43.49, 1.029903, 0, 0, 0, 1.0, 0, 0, 1, 0, 1, 391.8, 117.54, 1, 1, 0, 1, 0, 1, 0, 1, 0, 1
2005, '1', 117.54, -6.517, 199.43, -43.49, 1.029903, 0, 0, 0, 1.0, 0, 0, 1, 0, 1, 391.8, 117.54, 1, 1, 0, 1, 0, 1, 0, 1, 0, 1
2006, '1', 129.628, -6.765, 199.43, -43.49, 1.029903, 0, 0, 0, 1.0, 0, 0, 1, 0, 1, 391.8, 117.54, 1, 1, 0, 1, 0, 1, 0, 1, 0, 1
2013, '1', 118.23084, -28.89, 42.73, -28.89, 1.0311162, 0, 0, 0, 1.0, 0, 0, 1, 1, 1, 200.1, 0, 1, 1, 0, 1, 0, 1, 0, 1, 0, 1
2019, '1', 217.659, 10.708, 46.43, -31.39, 1.0237437, 0, 0, 0, 1.0, 0, 0, 1, 0, 1, 218, 0, 1, 1, 0, 1, 0, 1, 0, 1, 0, 1
2023, '1', 25.033861, -9.25, 42.42, -9.25, 1.0278527, 0, 0, 0, 1.0, 0, 0, 1, 1, 1, 83.33, 25, 1, 1, 0, 1, 0, 1, 0, 1, 0, 1
2024, '1', 50.067725, -18.5, 84.83, -18.5, 1.026557, 0, 0, 0, 1.0, 0, 0, 1, 1, 1, 166.67, 50, 1, 1, 0, 1, 0, 1, 0, 1, 0, 1
2042, '1', 47.973209, -11.46, 16.95, -11.46, 1.0203033, 0, 0, 0, 1.0, 0, 0, 1, 1, 1, 79.6, 0, 1, 1, 0, 1, 0, 1, 0, 1, 0, 1
2056, '1', 5.991, -0.73, 2.8, -0.73, 1.0021561, 0, 0, 0, 1.0, 0, 0, 1, 0, 1, 6, 1.8, 1, 1, 0, 1, 0, 1, 0, 1, 0, 1
2057, '1', 216.29257, -87.84, 335.52, -87.84, 0.99065657, 0, 0, 0, 1.0, 0, 0, 1, 1, 1, 720, 216, 1, 1, 0, 1, 0, 1, 0, 1, 0, 1
2059, '1', 63.5, -11.52, 17.04, -11.52, 1.020847, 0, 0, 0, 1.0, 0, 0, 1, 1, 1, 63.5, 0, 1, 1, 0, 1, 0, 1, 0, 1, 0, 1
2062, '1', 110.2, -19.5, 28.84, -19.5, 1.02, 0, 0, 0, 1.0, 0, 0, 1, 1, 1, 110.2, 0, 1, 1, 0, 1, 0, 1, 0, 1, 0, 1
2071, '1', 98.556634, -21.6, 31.95, -21.6, 1, 0, 0, 0, 1.0, 0, 0, 1, 1, 1, 120.1, 0, 1, 1, 0, 1, 0, 1, 0, 1, 0, 1
2076, '1', 23.3, -4.32, 6.39, -4.32, 1.026995, 0, 0, 0, 1.0, 0, 0, 1, 1, 1, 23.3, 0, 1, 1, 0, 1, 0, 1, 0, 1, 0, 1
2078, '1', 20.8, -16.2, 23.96, -16.2, 1.02, 0, 0, 0, 1.0, 0, 0, 1, 1, 1, 20.8, 0, 1, 1, 0, 1, 0, 1, 0, 1, 0, 1
2083, '1', 6.0081269, -2.22, 10.18, -2.22, 1.0138942, 0, 0, 0, 1.0, 0, 0, 1, 1, 1, 20, 6, 1, 1, 0, 1, 0, 1, 0, 1, 0, 1
2084, '1', 18.301, -2.22, 10.18, -2.22, 0.9993225, 0, 0, 0, 1.0, 0, 0, 1, 0, 1, 20, 6, 1, 1, 0, 1, 0, 1, 0, 1, 0, 1
2085, '1', 0, 20.36, 20.36, -4.44, 0.9993225, 0, 0, 0, 1.0, 0, 0, 1, 0, 1, 40, 12, 1, 1, 0, 1, 0, 1, 0, 1, 0, 1
2089, '1', 44.8, -9.73, 14.4, -9.73, 1, 0, 0, 0, 1.0, 0, 0, 1, 1, 1, 44.8, 0, 1, 1, 0, 1, 0, 1, 0, 1, 0, 1
2094, '1', 0.035, -1.44, 2.13, -1.44, 1.0259484, 0, 0, 0, 1.0, 0, 0, 1, 0, 1, 10, 0, 1, 1, 0, 1, 0, 1, 0, 1, 0, 1
2095, '1', 4.274, -11.45, 16.93, -11.45, 1.0259484, 0, 0, 0, 1.0, 0, 0, 1, 0, 1, 79.5, 0, 1, 1, 0, 1, 0, 1, 0, 1, 0, 1
2099, '1', 9.7, -1.44, 2.13, -1.44, 1.0007635, 0, 0, 0, 1.0, 0, 0, 1, 1, 1, 9.7, 0, 1, 1, 0, 1, 0, 1, 0, 1, 0, 1
2100, '1', 145.9, -21.6, 31.95, -21.6, 1.0125941, 0, 0, 0, 1.0, 0, 0, 1, 1, 1, 145.9, 0, 1, 1, 0, 1, 0, 1, 0, 1, 0, 1
2103, '1', 80.32, -29.72, 136.28, -29.72, 1.0287875, 0, 0, 0, 1.0, 0, 0, 1, 0, 1, 267.73, 80.32, 1, 1, 0, 1, 0, 1, 0, 1, 0, 1
2104, '1', 88.58, -29.72, 136.28, -29.72, 1.0287875, 0, 0, 0, 1.0, 0, 0, 1, 0, 1, 267.73, 80.32, 1, 1, 0, 1, 0, 1, 0, 1, 0, 1
2105, '1', 80.41, -29.72, 136.28, -29.72, 1.0287875, 0, 0, 0, 1.0, 0, 0, 1, 0, 1, 267.73, 80.32, 1, 1, 0, 1, 0, 1, 0, 1, 0, 1
2115, '1', 55.48506, -20.5, 94.02, -20.5, 1.0232161, 0, 0, 0, 1.0, 0, 0, 1, 1, 1, 184.72, 55.41, 1, 1, 0, 1, 0, 1, 0, 1, 0, 1
2116, '1', 55.48506, -20.5, 94.02, -20.5, 1.0268013, 0, 0, 0, 1.0, 0, 0, 1, 1, 1, 184.72, 55.41, 1, 1, 0, 1, 0, 1, 0, 1, 0, 1
2117, '1', 55.48506, -20.5, 94.02, -20.5, 1.021732, 0, 0, 0, 1.0, 0, 0, 1, 1, 1, 184.72, 55.41, 1, 1, 0, 1, 0, 1, 0, 1, 0, 1
2118, '1', 55.48506, -20.5, 94.02, -20.5, 1.0208123, 0, 0, 0, 1.0, 0, 0, 1, 1, 1, 184.72, 55.41, 1, 1, 0, 1, 0, 1, 0, 1, 0, 1
2119, '1', 55.48506, -20.5, 94.02, -20.5, 1.0259389, 0, 0, 0, 1.0, 0, 0, 1, 1, 1, 184.72, 55.41, 1, 1, 0, 1, 0, 1, 0, 1, 0, 1
2120, '1', 55.48506, -20.5, 94.02, -20.5, 1.0212611, 0, 0, 0, 1.0, 0, 0, 1, 1, 1, 184.72, 55.41, 1, 1, 0, 1, 0, 1, 0, 1, 0, 1
2123, '1', 181.7, -26.16, 38.7, -26.16, 1.0317263, 0, 0, 0, 1.0, 0, 0, 1, 1, 1, 181.7, 0, 1, 1, 0, 1, 0, 1, 0, 1, 0, 1
2127, '1', 287.5, 28.230041, 61.47, -41.56, 1.04, 0, 0, 0, 1.0, 0, 0, 1, 1, 1, 287.5, 0, 1, 1, 0, 1, 0, 1, 0, 1, 0, 1
3004, '1', 35.4, -5.4, 7.99, -5.4, 1.0078455, 0, 0, 0, 1.0, 0, 0, 1, 1, 1, 35.4, 0, 1, 1, 0, 1, 0, 1, 0, 1, 0, 1
3017, '1', 96.2014, -24.41, 36.1, -24.41, 1.01, 0, 0, 0, 1.0, 0, 0, 1, 1, 1, 98.4, 0, 1, 1, 0, 1, 0, 1, 0, 1, 0, 1
3020, '1', 100, -21.6, 31.95, -21.6, 1.03, 0, 0, 0, 1.0, 0, 0, 1, 1, 1, 100, 0, 1, 1, 0, 1, 0, 1, 0, 1, 0, 1
3028, '1', 118.87292, -28.8, 42.6, -28.8, 1.04, 0, 0, 0, 1.0, 0, 0, 1, 1, 1, 143, 0, 1, 1, 0, 1, 0, 1, 0, 1, 0, 1
3034, '1', 67.3, -18.79, 27.8, -18.79, 1.03, 0, 0, 0, 1.0, 0, 0, 1, 1, 1, 67.3, 0, 1, 1, 0, 1, 0, 1, 0, 1, 0, 1
3039, '1', 144.8, -30.1, 44.52, -30.1, 1.039368, 0, 0, 0, 1.0, 0, 0, 1, 1, 1, 144.8, 0, 1, 1, 0, 1, 0, 1, 0, 1, 0, 1
3043, '1', 0, 0.66, 0.66, -0.14, 1.0227421, 0, 0, 0, 1.0, 0, 0, 1, 0, 1, 1.3, 0.39, 1, 1, 0, 1, 0, 1, 0, 1, 0, 1
3044, '1', 0, 25.432, 45.5, -9.92, 1.0227421, 0, 0, 0, 1.0, 0, 0, 1, 0, 1, 89.4, 26.82, 1, 1, 0, 1, 0, 1, 0, 1, 0, 1
3045, '1', 134.1, 51.998, 227.52, -49.62, 1.0227421, 0, 0, 0, 1.0, 0, 0, 1, 0, 1, 447, 134.1, 1, 1, 0, 1, 0, 1, 0, 1, 0, 1
3048, '1', 212.4, -34.7, 51.33, -34.7, 1.0359226, 0, 0, 0, 1.0, 0, 0, 1, 1, 1, 212.4, 0, 1, 1, 0, 1, 0, 1, 0, 1, 0, 1
3055, '1', 104.1, -35.3, 52.22, -35.3, 1.04, 0, 0, 0, 1.0, 0, 0, 1, 1, 1, 104.1, 0, 1, 1, 0, 1, 0, 1, 0, 1, 0, 1
3056, '1', 104.1, -35.3, 52.22, -35.3, 1.04, 0, 0, 0, 1.0, 0, 0, 1, 1, 1, 104.1, 0, 1, 1, 0, 1, 0, 1, 0, 1, 0, 1
3057, '1', 104.1, -35.3, 52.22, -35.3, 1.04, 0, 0, 0, 1.0, 0, 0, 1, 1, 1, 104.1, 0, 1, 1, 0, 1, 0, 1, 0, 1, 0, 1
3060, '1', 100.3, -23.85, 35.28, -23.85, 1.04, 0, 0, 0, 1.0, 0, 0, 1, 1, 1, 100.3, 0, 1, 1, 0, 1, 0, 1, 0, 1, 0, 1
3061, '1', 10.4, -23.85, 35.28, -23.85, 1.04, 0, 0, 0, 1.0, 0, 0, 1, 1, 1, 10.4, 0, 1, 1, 0, 1, 0, 1, 0, 1, 0, 1
3062, '1', 100.3, -23.85, 35.28, -23.85, 1.04, 0, 0, 0, 1.0, 0, 0, 1, 1, 1, 100.3, 0, 1, 1, 0, 1, 0, 1, 0, 1, 0, 1
3063, '1', 100.3, -23.85, 35.28, -23.85, 1.04, 0, 0, 0, 1.0, 0, 0, 1, 1, 1, 100.3, 0, 1, 1, 0, 1, 0, 1, 0, 1, 0, 1
3065, '1', 65.6, -11.59, 17.15, -11.59, 1, 0, 0, 0, 1.0, 0, 0, 1, 1, 1, 65.6, 0, 1, 1, 0, 1, 0, 1, 0, 1, 0, 1
3068, '1', 82.2, -21.6, 31.95, -21.6, 1.039415, 0, 0, 0, 1.0, 0, 0, 1, 1, 1, 82.2, 0, 1, 1, 0, 1, 0, 1, 0, 1, 0, 1
3071, '1', 112.8, -24.51, 36.25, -24.51, 1.0050923, 0, 0, 0, 1.0, 0, 0, 1, 1, 1, 112.8, 0, 1, 1, 0, 1, 0, 1, 0, 1, 0, 1
3074, '1', 0.3, -14.37, 21.26, -14.37, 1, 0, 0, 0, 1.0, 0, 0, 1, 1, 1, 0.3, 0, 1, 1, 0, 1, 0, 1, 0, 1, 0, 1
3081, '1', 235.1, -35.86, 53.04, -35.86, 1.04, 0, 0, 0, 1.0, 0, 0, 1, 1, 1, 235.1, 0, 1, 1, 0, 1, 0, 1, 0, 1, 0, 1
3084, '1', 214.5, -33.48, 49.52, -33.48, 1, 0, 0, 0, 1.0, 0, 0, 1, 1, 1, 214.5, 0, 1, 1, 0, 1, 0, 1, 0, 1, 0, 1
3086, '1', 41.6, -10.8, 15.97, -10.8, 1, 0, 0, 0, 1.0, 0, 0, 1, 1, 1, 41.6, 0, 1, 1, 0, 1, 0, 1, 0, 1, 0, 1
3087, '1', 13.882, -1.069, 15.97, -10.8, 1.0066076, 0, 0, 0, 1.0, 0, 0, 1, 0, 1, 41.6, 0, 1, 1, 0, 1, 0, 1, 0, 1, 0, 1
3092, '1', 134.4, -28.8, 42.6, -28.8, 1.04, 0, 0, 0, 1.0, 0, 0, 1, 1, 1, 134.4, 0, 1, 1, 0, 1, 0, 1, 0, 1, 0, 1
3095, '1', 58.376012, -17.37, 25.69, -17.37, 1.04, 0, 0, 0, 1.0, 0, 0, 1, 1, 1, 111.1, 0, 1, 1, 0, 1, 0, 1, 0, 1, 0, 1
3098, '1', 145.7, -23.04, 34.08, -23.04, 1.04, 0, 0, 0, 1.0, 0, 0, 1, 1, 1, 145.7, 0, 1, 1, 0, 1, 0, 1, 0, 1, 0, 1
3105, '1', 0, -0.74, 17.071, -0.74, 1.0109014, 0, 0, 0, 1.0, 0, 0, 1, 1, 1, 0, 0, 1, 1, 0, 1, 0, 1, 0, 1, 0, 1
3106, '1', 0, -2.69, 62.477, -2.69, 1.0066512, 0, 0, 0, 1.0, 0, 0, 1, 1, 1, 0, 0, 1, 1, 0, 1, 0, 1, 0, 1, 0, 1
3110, '1', 74.6, -12.1, 17.89, -12.1, 1.04, 0, 0, 0, 1.0, 0, 0, 1, 1, 1, 74.6, 0, 1, 1, 0, 1, 0, 1, 0, 1, 0, 1
3112, '1', 62.8, -10.77, 15.93, -10.77, 1, 0, 0, 0, 1.0, 0, 0, 1, 1, 1, 62.8, 0, 1, 1, 0, 1, 0, 1, 0, 1, 0, 1
3113, '1', 46.7, -10.77, 15.93, -10.77, 1, 0, 0, 0, 1.0, 0, 0, 1, 1, 1, 46.7, 0, 1, 1, 0, 1, 0, 1, 0, 1, 0, 1
3117, '1', 58.3, -9.07, 13.42, -9.07, 1, 0, 0, 0, 1.0, 0, 0, 1, 1, 1, 58.3, 0, 1, 1, 0, 1, 0, 1, 0, 1, 0, 1
3118, '1', 63.720935, -17.28, 25.56, -17.28, 1, 0, 0, 0, 1.0, 0, 0, 1, 1, 1, 110.1, 0, 1, 1, 0, 1, 0, 1, 0, 1, 0, 1
3120, '1', 0, 0, 0, 0, 1.0065615, 0, 0, 0, 1.0, 0, 0, 1, 1, 1, 0, 0, 1, 1, 0, 1, 0, 1, 0, 1, 0, 1
3122, '1', 172.2, -28.37, 41.96, -28.37, 1, 0, 0, 0, 1.0, 0, 0, 1, 1, 1, 172.2, 0, 1, 1, 0, 1, 0, 1, 0, 1, 0, 1
3127, '1', 93.723252, -19.44, 28.76, -19.44, 1.0121954, 0, 0, 0, 1.0, 0, 0, 1, 1, 1, 112.1, 0, 1, 1, 0, 1, 0, 1, 0, 1, 0, 1
3129, '1', 40.596292, -18.22, 26.94, -18.22, 1.0081859, 0, 0, 0, 1.0, 0, 0, 1, 1, 1, 81.8, 0, 1, 1, 0, 1, 0, 1, 0, 1, 0, 1
3131, '1', 81.1, -16.42, 24.28, -16.42, 1.02, 0, 0, 0, 1.0, 0, 0, 1, 1, 1, 81.1, 0, 1, 1, 0, 1, 0, 1, 0, 1, 0, 1
3133, '1', 15.407, 5.257, 26.11, -5.69, 1.0169497, 0, 0, 0, 1.0, 0, 0, 1, 0, 1, 51.3, 15.39, 1, 1, 0, 1, 0, 1, 0, 1, 0, 1
3133, '2', 15.407, 5.257, 26.11, -5.69, 1.0169497, 0, 0, 0, 1.0, 0, 0, 1, 0, 1, 51.3, 15.39, 1, 1, 0, 1, 0, 1, 0, 1, 0, 1
3133, '3', 15.407, 5.257, 26.11, -5.69, 1.0169497, 0, 0, 0, 1.0, 0, 0, 1, 0, 1, 51.3, 15.39, 1, 1, 0, 1, 0, 1, 0, 1, 0, 1
3137, '1', 14.701122, -14.57, 21.56, -14.57, 1.0179917, 0, 0, 0, 1.0, 0, 0, 1, 1, 1, 73.3, 0, 1, 1, 0, 1, 0, 1, 0, 1, 0, 1
3141, '1', 85.1, -13.18, 19.49, -13.18, 1.0135718, 0, 0, 0, 1.0, 0, 0, 1, 1, 1, 85.1, 0, 1, 1, 0, 1, 0, 1, 0, 1, 0, 1
4010, '1', 1, -29.03, 42.94, -29.03, 1.03, 0, 0, 0, 1.0, 0, 0, 1, 1, 1, 1, 0, 1, 1, 0, 1, 0, 1, 0, 1, 0, 1
4026, '1', 123.1666, -50.02, 191.06, -50.02, 1.03, 0, 0, 0, 1.0, 0, 0, 1, 1, 1, 410, 123, 1, 1, 0, 1, 0, 1, 0, 1, 0, 1
4030, '1', 186.97291, -75.93, 290.04, -75.93, 1.015303, 0, 0, 0, 1.0, 0, 0, 1, 1, 1, 622.4, 186.72, 1, 1, 0, 1, 0, 1, 0, 1, 0, 1
4045, '1', 0, -1.54, 35.862, -1.54, 1.02, 0, 0, 0, 1.0, 0, 0, 1, 1, 1, 0, 0, 1, 1, 0, 1, 0, 1, 0, 1, 0, 1
4046, '1', 0, -0.47, 10.936, -0.47, 1.02, 0, 0, 0, 1.0, 0, 0, 1, 1, 1, 0, 0, 1, 1, 0, 1, 0, 1, 0, 1, 0, 1
4047, '1', 0, -3.23, 75.102, -3.23, 1.02, 0, 0, 0, 1.0, 0, 0, 1, 1, 1, 0, 0, 1, 1, 0, 1, 0, 1, 0, 1, 0, 1
4050, '1', 47.9, -28.8, 42.6, -28.8, 1, 0, 0, 0, 1.0, 0, 0, 1, 1, 1, 47.9, 0, 1, 1, 0, 1, 0, 1, 0, 1, 0, 1
4052, '1', 13.27796, -4.91, 22.5, -4.91, 1.04, 0, 0, 0, 1.0, 0, 0, 1, 1, 1, 44.2, 13.26, 1, 1, 0, 1, 0, 1, 0, 1, 0, 1
4058, '1', 107.77051, -15.98, 73.3, -15.98, 1.03, 0, 0, 0, 1.0, 0, 0, 1, 1, 1, 144, 43.2, 1, 1, 0, 1, 0, 1, 0, 1, 0, 1
4059, '1', 107.77051, -15.98, 73.3, -15.98, 1.03, 0, 0, 0, 1.0, 0, 0, 1, 1, 1, 144, 43.2, 1, 1, 0, 1, 0, 1, 0, 1, 0, 1
4060, '1', 92.094432, -15.98, 73.3, -15.98, 1.03, 0, 0, 0, 1.0, 0, 0, 1, 1, 1, 144, 43.2, 1, 1, 0, 1, 0, 1, 0, 1, 0, 1
4061, '1', 71.070825, -19.13, 87.72, -19.13, 1.03, 0, 0, 0, 1.0, 0, 0, 1, 1, 1, 172.33, 51.7, 1, 1, 0, 1, 0, 1, 0, 1, 0, 1
4062, '1', 71.070825, -19.13, 87.72, -19.13, 1.03, 0, 0, 0, 1.0, 0, 0, 1, 1, 1, 172.33, 51.7, 1, 1, 0, 1, 0, 1, 0, 1, 0, 1
4063, '1', 71.070825, -19.13, 87.72, -19.13, 1.03, 0, 0, 0, 1.0, 0, 0, 1, 1, 1, 172.33, 51.7, 1, 1, 0, 1, 0, 1, 0, 1, 0, 1
4065, '1', 40.439094, -5.22, 23.92, -5.22, 1.02, 0, 0, 0, 1.0, 0, 0, 1, 1, 1, 47, 14.1, 1, 1, 0, 1, 0, 1, 0, 1, 0, 1
4075, '1', 120.586, 22.596, 89.75, -19.57, 1.0158198, 0, 0, 0, 1.0, 0, 0, 1, 0, 1, 176.33, 52.9, 1, 1, 0, 1, 0, 1, 0, 1, 0, 1
4076, '1', 52.97165, -19.57, 89.75, -19.57, 1.03, 0, 0, 0, 1.0, 0, 0, 1, 1, 1, 176.33, 52.9, 1, 1, 0, 1, 0, 1, 0, 1, 0, 1
4077, '1', 52.97165, -19.57, 89.75, -19.57, 1.03, 0, 0, 0, 1.0, 0, 0, 1, 1, 1, 176.33, 52.9, 1, 1, 0, 1, 0, 1, 0, 1, 0, 1
4082, '1', 73.118904, -27.02, 123.89, -27.02, 1.04, 0, 0, 0, 1.0, 0, 0, 1, 1, 1, 243.4, 73.02, 1, 1, 0, 1, 0, 1, 0, 1, 0, 1
4083, '1', 73.118904, -27.02, 123.89, -27.02, 1.04, 0, 0, 0, 1.0, 0, 0, 1, 1, 1, 243.4, 73.02, 1, 1, 0, 1, 0, 1, 0, 1, 0, 1
4084, '1', 73.118904, -27.02, 123.89, -27.02, 1.04, 0, 0, 0, 1.0, 0, 0, 1, 1, 1, 243.4, 73.02, 1, 1, 0, 1, 0, 1, 0, 1, 0, 1
4085, '1', 105.74303, -39.07, 179.17, -39.07, 1.04, 0, 0, 0, 1.0, 0, 0, 1, 1, 1, 352, 105.6, 1, 1, 0, 1, 0, 1, 0, 1, 0, 1
4090, '1', 1.398, 0.259, 0.65, -0.17, 1.0096485, 0, 0, 0, 1.0, 0, 0, 1, 0, 1, 1.4, 0.42, 1, 1, 0, 1, 0, 1, 0, 1, 0, 1
4091, '1', 20.219547, -2.87, 10.95, -2.87, 1.01, 0, 0, 0, 1.0, 0, 0, 1, 1, 1, 23.5, 7.05, 1, 1, 0, 1, 0, 1, 0, 1, 0, 1
4092, '1', 7.588, 1.18, 3.54, -0.93, 1.0096485, 0, 0, 0, 1.0, 0, 0, 1, 0, 1, 7.6, 2.28, 1, 1, 0, 1, 0, 1, 0, 1, 0, 1
4093, '1', 24.091375, -3.42, 13.05, -3.42, 1.01, 0, 0, 0, 1.0, 0, 0, 1, 1, 1, 28, 8.4, 1, 1, 0, 1, 0, 1, 0, 1, 0, 1
4094, '1', 24.091375, -3.42, 13.05, -3.42, 1.01, 0, 0, 0, 1.0, 0, 0, 1, 1, 1, 28, 8.4, 1, 1, 0, 1, 0, 1, 0, 1, 0, 1
4095, '1', 24.091375, -3.42, 13.05, -3.42, 1.01, 0, 0, 0, 1.0, 0, 0, 1, 1, 1, 28, 8.4, 1, 1, 0, 1, 0, 1, 0, 1, 0, 1
4096, '1', 14.769, 0.264, 13.05, -3.42, 1.0096485, 0, 0, 0, 1.0, 0, 0, 1, 0, 1, 28, 8.4, 1, 1, 0, 1, 0, 1, 0, 1, 0, 1
4097, '1', 24.091375, -3.42, 13.05, -3.42, 1.01, 0, 0, 0, 1.0, 0, 0, 1, 1, 1, 28, 8.4, 1, 1, 0, 1, 0, 1, 0, 1, 0, 1
4098, '1', 16.333, 0.291, 13.05, -3.42, 1.0096485, 0, 0, 0, 1.0, 0, 0, 1, 0, 1, 28, 8.4, 1, 1, 0, 1, 0, 1, 0, 1, 0, 1
4105, '1', 120.12793, -25.92, 38.34, -25.92, 1.01, 0, 0, 0, 1.0, 0, 0, 1, 1, 1, 139.5, 0, 1, 1, 0, 1, 0, 1, 0, 1, 0, 1
4115, '1', 39.593556, -14.63, 67.09, -14.63, 1.04, 0, 0, 0, 1.0, 0, 0, 1, 1, 1, 131.8, 39.54, 1, 1, 0, 1, 0, 1, 0, 1, 0, 1
4116, '1', 39.593556, -14.63, 67.09, -14.63, 1.04, 0, 0, 0, 1.0, 0, 0, 1, 1, 1, 131.8, 39.54, 1, 1, 0, 1, 0, 1, 0, 1, 0, 1
4133, '1', 10.091, -3.73, 17.1, -3.73, 1.0178548, 0, 0, 0, 1.0, 0, 0, 1, 0, 1, 33.6, 10.08, 1, 1, 0, 1, 0, 1, 0, 1, 0, 1
4134, '1', 10.093653, -3.73, 17.1, -3.73, 1.0125146, 0, 0, 0, 1.0, 0, 0, 1, 1, 1, 33.6, 10.08, 1, 1, 0, 1, 0, 1, 0, 1, 0, 1
4135, '1', 10.093653, -3.73, 17.1, -3.73, 1.0129096, 0, 0, 0, 1.0, 0, 0, 1, 1, 1, 33.6, 10.08, 1, 1, 0, 1, 0, 1, 0, 1, 0, 1
4136, '1', 10.093653, -3.73, 17.1, -3.73, 1.0112108, 0, 0, 0, 1.0, 0, 0, 1, 1, 1, 33.6, 10.08, 1, 1, 0, 1, 0, 1, 0, 1, 0, 1
4137, '1', 0, -7.46, 34.2, -7.46, 1.0178548, 0, 0, 0, 1.0, 0, 0, 1, 0, 1, 67.2, 20.16, 1, 1, 0, 1, 0, 1, 0, 1, 0, 1
4138, '1', 0, -7.33, 33.59, -7.33, 1.0178548, 0, 0, 0, 1.0, 0, 0, 1, 0, 1, 66, 19.8, 1, 1, 0, 1, 0, 1, 0, 1, 0, 1
4142, '1', 71.5, -27.07, 40.04, -27.07, 1.04, 0, 0, 0, 1.0, 0, 0, 1, 1, 1, 71.5, 0, 1, 1, 0, 1, 0, 1, 0, 1, 0, 1
4153, '1', 103.7, -40.78, 60.32, -40.78, 1.0381683, 0, 0, 0, 1.0, 0, 0, 1, 1, 1, 103.7, 0, 1, 1, 0, 1, 0, 1, 0, 1, 0, 1
4160, '1', 59.410362, -21.95, 100.66, -21.95, 1.03, 0, 0, 0, 1.0, 0, 0, 1, 1, 1, 197.77, 59.33, 1, 1, 0, 1, 0, 1, 0, 1, 0, 1
4161, '1', 59.410362, -21.95, 100.66, -21.95, 1.03, 0, 0, 0, 1.0, 0, 0, 1, 1, 1, 197.77, 59.33, 1, 1, 0, 1, 0, 1, 0, 1, 0, 1
4162, '1', 59.410362, -21.95, 100.66, -21.95, 1.03, 0, 0, 0, 1.0, 0, 0, 1, 1, 1, 197.77, 59.33, 1, 1, 0, 1, 0, 1, 0, 1, 0, 1
4163, '1', 8.986, 4.58, 4.58, -1, 1.0216305, 0, 0, 0, 1.0, 0, 0, 1, 0, 1, 9, 2.7, 1, 1, 0, 1, 0, 1, 0, 1, 0, 1
4166, '1', 73.6, -28.94, 42.81, -28.94, 1.0104981, 0, 0, 0, 1.0, 0, 0, 1, 1, 1, 73.6, 0, 1, 1, 0, 1, 0, 1, 0, 1, 0, 1
4177, '1', 98.626706, -21.6, 31.95, -21.6, 1.04, 0, 0, 0, 1.0, 0, 0, 1, 1, 1, 126, 0, 1, 1, 0, 1, 0, 1, 0, 1, 0, 1
4181, '1', 98.2, -28.81, 42.62, -28.81, 1.0295726, 0, 0, 0, 1.0, 0, 0, 1, 1, 1, 98.2, 0, 1, 1, 0, 1, 0, 1, 0, 1, 0, 1
4183, '1', 203, -29.23, 43.24, -29.23, 1.0251167, 0, 0, 0, 1.0, 0, 0, 1, 1, 1, 203, 0, 1, 1, 0, 1, 0, 1, 0, 1, 0, 1
4192, '1', 64.530469, -8.33, 38.17, -8.33, 1.02, 0, 0, 0, 1.0, 0, 0, 1, 1, 1, 75, 22.5, 1, 1, 0, 1, 0, 1, 0, 1, 0, 1
4192, '10', 62.094815, -20.4, 93.54, -20.4, 1.02, 0, 0, 0, 1.0, 0, 0, 1, 1, 1, 183.77, 55.13, 1, 1, 0, 1, 0, 1, 0, 1, 0, 1
4192, '2', 23.962, 8.668, 12.22, -2.66, 1.02, 0, 0, 0, 1.0, 0, 0, 1, 0, 1, 24, 7.2, 1, 1, 0, 1, 0, 1, 0, 1, 0, 1
4192, '3', 52.484781, -6.77, 31.05, -6.77, 1.02, 0, 0, 0, 1.0, 0, 0, 1, 1, 1, 61, 18.3, 1, 1, 0, 1, 0, 1, 0, 1, 0, 1
4192, '4', 8.948225, -1.15, 5.29, -1.15, 1.02, 0, 0, 0, 1.0, 0, 0, 1, 1, 1, 10.4, 3.12, 1, 1, 0, 1, 0, 1, 0, 1, 0, 1
4192, '5', 80.208494, -29.64, 135.9, -29.64, 1.02, 0, 0, 0, 1.0, 0, 0, 1, 1, 1, 267, 80.1, 1, 1, 0, 1, 0, 1, 0, 1, 0, 1
4192, '6', 80.208494, -29.64, 135.9, -29.64, 1.02, 0, 0, 0, 1.0, 0, 0, 1, 1, 1, 267, 80.1, 1, 1, 0, 1, 0, 1, 0, 1, 0, 1
4192, '7', 80.208494, -29.64, 135.9, -29.64, 1.02, 0, 0, 0, 1.0, 0, 0, 1, 1, 1, 267, 80.1, 1, 1, 0, 1, 0, 1, 0, 1, 0, 1
4192, '8', 55.205473, -20.4, 93.54, -20.4, 1.02, 0, 0, 0, 1.0, 0, 0, 1, 1, 1, 183.77, 55.13, 1, 1, 0, 1, 0, 1, 0, 1, 0, 1
4192, '9', 55.205473, -20.4, 93.54, -20.4, 1.02, 0, 0, 0, 1.0, 0, 0, 1, 1, 1, 183.77, 55.13, 1, 1, 0, 1, 0, 1, 0, 1, 0, 1
4194, '1', 66.2, -29.03, 42.94, -29.03, 1.0113256, 0, 0, 0, 1.0, 0, 0, 1, 1, 1, 66.2, 0, 1, 1, 0, 1, 0, 1, 0, 1, 0, 1
4195, '1', 89.5, -13.25, 19.6, -13.25, 1.031136, 0, 0, 0, 1.0, 0, 0, 1, 1, 1, 89.5, 0, 1, 1, 0, 1, 0, 1, 0, 1, 0, 1
5020, '1', 28.3, -17.28, 25.56, -17.28, 1.0158817, 0, 0, 0, 1.0, 0, 0, 1, 1, 1, 28.3, 0, 1, 1, 0, 1, 0, 1, 0, 1, 0, 1
5023, '1', 0, 2.44, 2.44, -0.53, 1.0215252, 0, 0, 0, 1.0, 0, 0, 1, 0, 1, 4.8, 1.44, 1, 1, 0, 1, 0, 1, 0, 1, 0, 1
5035, '1', 1.261, -0.47, 2.14, -0.47, 1.0224143, 0, 0, 0, 1.0, 0, 0, 1, 0, 1, 4.2, 1.26, 1, 1, 0, 1, 0, 1, 0, 1, 0, 1
5036, '1', 0, 3.26, 3.26, -0.71, 1.0224143, 0, 0, 0, 1.0, 0, 0, 1, 0, 1, 6.4, 1.92, 1, 1, 0, 1, 0, 1, 0, 1, 0, 1
5037, '1', 92.665345, -34.24, 157.01, -34.24, 1.02, 0, 0, 0, 1.0, 0, 0, 1, 1, 1, 308.47, 92.54, 1, 1, 0, 1, 0, 1, 0, 1, 0, 1
5038, '1', 92.665345, -34.24, 157.01, -34.24, 1.02, 0, 0, 0, 1.0, 0, 0, 1, 1, 1, 308.47, 92.54, 1, 1, 0, 1, 0, 1, 0, 1, 0, 1
5039, '1', 92.665345, -34.24, 157.01, -34.24, 1.0206226, 0, 0, 0, 1.0, 0, 0, 1, 1, 1, 308.47, 92.54, 1, 1, 0, 1, 0, 1, 0, 1, 0, 1
5040, '1', 92.665345, -34.24, 157.01, -34.24, 1.02, 0, 0, 0, 1.0, 0, 0, 1, 1, 1, 308.47, 92.54, 1, 1, 0, 1, 0, 1, 0, 1, 0, 1
5041, '1', 92.665345, -34.24, 157.01, -34.24, 1.02, 0, 0, 0, 1.0, 0, 0, 1, 1, 1, 308.47, 92.54, 1, 1, 0, 1, 0, 1, 0, 1, 0, 1
5042, '1', 92.665345, -34.24, 157.01, -34.24, 1.02, 0, 0, 0, 1.0, 0, 0, 1, 1, 1, 308.47, 92.54, 1, 1, 0, 1, 0, 1, 0, 1, 0, 1
5051, '1', 25.444417, -9.4, 43.11, -9.4, 1.0288851, 0, 0, 0, 1.0, 0, 0, 1, 1, 1, 84.7, 25.41, 1, 1, 0, 1, 0, 1, 0, 1, 0, 1
5057, '1', 316.854, -35.23, 161.53, -35.23, 1.0203421, 0, 0, 0, 1.0, 0, 0, 1, 0, 1, 317.35, 95.2, 1, 1, 0, 1, 0, 1, 0, 1, 0, 1
5058, '1', 95.328953, -35.23, 161.53, -35.23, 1.0137708, 0, 0, 0, 1.0, 0, 0, 1, 1, 1, 317.35, 95.2, 1, 1, 0, 1, 0, 1, 0, 1, 0, 1
5065, '1', 3.1843072, -1.18, 5.4, -1.18, 1.0260466, 0, 0, 0, 1.0, 0, 0, 1, 1, 1, 10.6, 3.18, 1, 1, 0, 1, 0, 1, 0, 1, 0, 1
5066, '1', 0, 0.92, 0.92, -0.2, 1.0251597, 0, 0, 0, 1.0, 0, 0, 1, 0, 1, 1.8, 0.54, 1, 1, 0, 1, 0, 1, 0, 1, 0, 1
5067, '1', 131.65809, -48.65, 223.08, -48.65, 1.03, 0, 0, 0, 1.0, 0, 0, 1, 1, 1, 438.27, 131.48, 1, 1, 0, 1, 0, 1, 0, 1, 0, 1
5068, '1', 131.65809, -48.65, 223.08, -48.65, 1.03, 0, 0, 0, 1.0, 0, 0, 1, 1, 1, 438.27, 131.48, 1, 1, 0, 1, 0, 1, 0, 1, 0, 1
5069, '1', 131.65809, -48.65, 223.08, -48.65, 1.03, 0, 0, 0, 1.0, 0, 0, 1, 1, 1, 438.27, 131.48, 1, 1, 0, 1, 0, 1, 0, 1, 0, 1
5089, '1', 123.835, -2.05, 47.569, -2.05, 1.0267733, 0, 0, 0, 1.0, 0, 0, 1, 0, 1, 123.9, 0, 1, 1, 0, 1, 0, 1, 0, 1, 0, 1
...
0 / END OF GENERATOR DATA, BEGIN BRANCH DATA
1001, 1064, '1', 0.00524, 0.0358, 0.00609, 221, 221, 221, 0, 0, 0, 0, 1, 1, 0, 1, 1, 0, 1, 0, 1, 0, 1
1001, 1064, '2', 0.00524, 0.0358, 0.00609, 221, 221, 221, 0, 0, 0, 0, 1, 1, 0, 1, 1, 0, 1, 0, 1, 0, 1
1001, 1071, '1', 0.00435, 0.02808, 0.00536, 221, 221, 221, 0, 0, 0, 0, 1, 1, 0, 1, 1, 0, 1, 0, 1, 0, 1
1001, 1071, '2', 0.00435, 0.02808, 0.00536, 221, 221, 221, 0, 0, 0, 0, 0, 1, 0, 1, 1, 0, 1, 0, 1, 0, 1
1002, 1007, '1', 0.07776, 0.46693, 0.06336, 98, 98, 98, 0, 0, 0, 0, 1, 1, 0, 1, 1, 0, 1, 0, 1, 0, 1
1010, 1002, '1', 0.05552, 0.1357, 0.01777, 98, 98, 98, 0, 0, 0, 0, 1, 1, 0, 1, 1, 0, 1, 0, 1, 0, 1
1022, 1003, '1', 0.00485, 0.02012, 0.00341, 221, 221, 221, 0, 0, 0, 0, 1, 1, 0, 1, 1, 0, 1, 0, 1, 0, 1
1055, 1003, '1', 0.01574, 0.03782, 0.00513, 98, 98, 98, 0, 0, 0, 0, 1, 1, 0, 1, 1, 0, 1, 0, 1, 0, 1
1004, 3133, '1', 0.0042, 0.03, 0.055, 523, 523, 523, 0, 0, 0, 0, 1, 1, 0, 1, 1, 0, 1, 0, 1, 0, 1
1025, 1005, '1', 0.01842, 0.0821, 0.01204, 149, 149, 149, 0, 0, 0, 0, 1, 1, 0, 1, 1, 0, 1, 0, 1, 0, 1
1005, 1061, '1', 0.00599, 0.02484, 0.00422, 221, 221, 221, 0, 0, 0, 0, 1, 1, 0, 1, 1, 0, 1, 0, 1, 0, 1
1067, 1005, '1', 0.01711, 0.04181, 0.00548, 98, 98, 98, 0, 0, 0, 0, 1, 1, 0, 1, 1, 0, 1, 0, 1, 0, 1
1007, 1015, '1', 0.06224, 0.37375, 0.05072, 98, 98, 98, 0, 0, 0, 0, 1, 1, 0, 1, 1, 0, 1, 0, 1, 0, 1
1031, 1007, '1', 0.04803, 0.27434, 0.04123, 98, 98, 98, 0, 0, 0, 0, 1, 1, 0, 1, 1, 0, 1, 0, 1, 0, 1
1008, 1032, '1', 0.04501, 0.11002, 0.01441, 98, 98, 98, 0, 0, 0, 0, 1, 1, 0, 1, 1, 0, 1, 0, 1, 0, 1
1008, 1069, '1', 0.0083, 0.03628, 0.00553, 149, 149, 149, 0, 0, 0, 0, 1, 1, 0, 1, 1, 0, 1, 0, 1, 0, 1
1010, 1015, '1', 0.04703, 0.28243, 0.03833, 98, 98, 98, 0, 0, 0, 0, 1, 1, 0, 1, 1, 0, 1, 0, 1, 0, 1
1010, 1030, '1', 0.0616, 0.3699, 0.0502, 98, 98, 98, 0, 0, 0, 0, 1, 1, 0, 1, 1, 0, 1, 0, 1, 0, 1
1012, 1087, '1', 0.04934, 0.20469, 0.03473, 149, 149, 149, 0, 0, 0, 0, 1, 1, 0, 1, 1, 0, 1, 0, 1, 0, 1
3051, 1012, '1', 0.0571, 0.24977, 0.03804, 149, 149, 149, 0, 0, 0, 0, 1, 1, 0, 1, 1, 0, 1, 0, 1, 0, 1
1013, 1031, '1', 0.04509, 0.27078, 0.03675, 98, 98, 98, 0, 0, 0, 0, 1, 1, 0, 1, 1, 0, 1, 0, 1, 0, 1
1047, 1013, '1', 0.00947, 0.06117, 0.01167, 221, 221, 221, 0, 0, 0, 0, 1, 1, 0, 1, 1, 0, 1, 0, 1, 0, 1
1086, 1013, '1', 0.079, 0.19311, 0.02529, 98, 98, 98, 0, 0, 0, 0, 1, 1, 0, 1, 1, 0, 1, 0, 1, 0, 1
1014, 1047, '1', 0.03566, 0.14794, 0.0251, 149, 149, 149, 0, 0, 0, 0, 1, 1, 0, 1, 1, 0, 1, 0, 1, 0, 1
1014, 1083, '1', 0.04105, 0.18293, 0.02682, 149, 149, 149, 0, 0, 0, 0, 1, 1, 0, 1, 1, 0, 1, 0, 1, 0, 1
1016, 1034, '1', 0.01828, 0.10976, 0.01489, 98, 98, 98, 0, 0, 0, 0, 1, 1, 0, 1, 1, 0, 1, 0, 1, 0, 1
1068, 1016, '1', 0.02773, 0.15837, 0.0238, 98, 98, 98, 0, 0, 0, 0, 1, 1, 0, 1, 1, 0, 1, 0, 1, 0, 1
1018, 1017, '1', 0.03227, 0.07887, 0.01033, 98, 98, 98, 0, 0, 0, 0, 1, 1, 0, 1, 1, 0, 1, 0, 1, 0, 1
1017, 1029, '1', 0.03244, 0.14188, 0.02161, 149, 149, 149, 0, 0, 0, 0, 1, 1, 0, 1, 1, 0, 1, 0, 1, 0, 1
1037, 1017, '1', 0.00752, 0.03352, 0.00491, 221, 221, 221, 0, 0, 0, 0, 1, 1, 0, 1, 1, 0, 1, 0, 1, 0, 1
1047, 1017, '1', 0.036, 0.156, 0.024, 150, 150, 150, 0, 0, 0, 0, 1, 1, 0, 1, 1, 0, 1, 0, 1, 0, 1
1024, 1018, '1', 0.01094, 0.06572, 0.00892, 98, 98, 98, 0, 0, 0, 0, 1, 1, 0, 1, 1, 0, 1, 0, 1, 0, 1
1019, 1040, '1', 0.04978, 0.20651, 0.03504, 149, 149, 149, 0, 0, 0, 0, 1, 1, 0, 1, 1, 0, 1, 0, 1, 0, 1
1019, 1045, '1', 0.01522, 0.0372, 0.00487, 221, 221, 221, 0, 0, 0, 0, 1, 1, 0, 1, 1, 0, 1, 0, 1, 0, 1
1019, 1071, '1', 0.0044, 0.028, 0.0054, 225, 225, 225, 0, 0, 0, 0, 1, 1, 0, 1, 1, 0, 1, 0, 1, 0, 1
1071, 1019, '2', 0.0044, 0.028, 0.0054, 225, 225, 225, 0, 0, 0, 0, 1, 1, 0, 1, 1, 0, 1, 0, 1, 0, 1
1019, 1084, '1', 0.03, 0.16, 0.025, 220, 220, 220, 0, 0, 0, 0, 1, 1, 0, 1, 1, 0, 1, 0, 1, 0, 1
1025, 1020, '1', 0.00828, 0.03434, 0.00583, 149, 149, 149, 0, 0, 0, 0, 1, 1, 0, 1, 1, 0, 1, 0, 1, 0, 1
1084, 1020, '1', 0.01056, 0.06337, 0.0086, 221, 221, 221, 0, 0, 0, 0, 1, 1, 0, 1, 1, 0, 1, 0, 1, 0, 1
1020, 3059, '1', 0.0189, 0.06, 0.006, 300, 300, 300, 0, 0, 0, 0, 1, 1, 0, 1, 1, 0, 1, 0, 1, 0, 1
1020, 3130, '1', 0.00996, 0.06938, 0.01134, 221, 221, 221, 0, 0, 0, 0, 1, 1, 0, 1, 1, 0, 1, 0, 1, 0, 1
1022, 1028, '1', 0.01433, 0.09253, 0.01765, 221, 221, 221, 0, 0, 0, 0, 1, 1, 0, 1, 1, 0, 1, 0, 1, 0, 1
1022, 1028, '2', 0.01433, 0.09253, 0.01765, 221, 221, 221, 0, 0, 0, 0, 1, 1, 0, 1, 1, 0, 1, 0, 1, 0, 1
1024, 1090, '1', 0.01414, 0.06303, 0.00924, 149, 149, 149, 0, 0, 0, 0, 1, 1, 0, 1, 1, 0, 1, 0, 1, 0, 1
1027, 1045, '1', 0.02505, 0.10957, 0.01669, 221, 221, 221, 0, 0, 0, 0, 1, 1, 0, 1, 1, 0, 1, 0, 1, 0, 1
1056, 1027, '1', 0.03121, 0.0763, 0.00999, 250, 250, 250, 0, 0, 0, 0, 1, 1, 0, 1, 1, 0, 1, 0, 1, 0, 1
1028, 3109, '1', 0.00428, 0.01875, 0.00286, 250, 250, 250, 0, 0, 0, 0, 1, 1, 0, 1, 1, 0, 1, 0, 1, 0, 1
1029, 1056, '1', 0.02054, 0.11733, 0.01763, 221, 221, 221, 0, 0, 0, 0, 1, 1, 0, 1, 1, 0, 1, 0, 1, 0, 1
1030, 1038, '1', 0.07404, 0.42285, 0.06354, 98, 98, 98, 0, 0, 0, 0, 1, 1, 0, 1, 1, 0, 1, 0, 1, 0, 1
1083, 1030, '1', 0.06537, 0.37334, 0.0561, 98, 98, 98, 0, 0, 0, 0, 1, 1, 0, 1, 1, 0, 1, 0, 1, 0, 1
1032, 1036, '1', 0.01956, 0.11746, 0.01594, 98, 98, 98, 0, 0, 0, 0, 1, 1, 0, 1, 1, 0, 1, 0, 1, 0, 1
1038, 1032, '1', 0.045, 0.11, 0.015, 155, 155, 155, 0, 0, 0, 0, 1, 1, 0, 1, 1, 0, 1, 0, 1, 0, 1
1033, 1081, '1', 0.003, 0.031, 0.059, 548, 548, 548, 0, 0, 0, 0, 1, 1, 0, 1, 1, 0, 1, 0, 1, 0, 1
1033, 3050, '1', 0.0139, 0.136, 0.262, 647, 647, 647, 0, 0, 0, 0, 1, 1, 0, 1, 1, 0, 1, 0, 1, 0, 1
1067, 1034, '1', 0.00795, 0.04771, 0.00647, 98, 98, 98, 0, 0, 0, 0, 1, 1, 0, 1, 1, 0, 1, 0, 1, 0, 1
1088, 1036, '1', 0.02065, 0.11793, 0.01772, 98, 98, 98, 0, 0, 0, 0, 1, 1, 0, 1, 1, 0, 1, 0, 1, 0, 1
1037, 1071, '1', 0.00669, 0.04319, 0.00824, 300, 300, 300, 0, 0, 0, 0, 1, 1, 0, 1, 1, 0, 1, 0, 1, 0, 1
1082, 1038, '1', 0.01115, 0.04969, 0.00729, 149, 149, 149, 0, 0, 0, 0, 1, 1, 0, 1, 1, 0, 1, 0, 1, 0, 1
1083, 1038, '1', 0.01, 0.05, 0.007, 221, 221, 221, 0, 0, 0, 0, 1, 1, 0, 1, 1, 0, 1, 0, 1, 0, 1
1040, 1090, '1', 0.02991, 0.13329, 0.01955, 149, 149, 149, 0, 0, 0, 0, 1, 1, 0, 1, 1, 0, 1, 0, 1, 0, 1
1065, 1041, '1', 0.00386, 0.02203, 0.00331, 98, 98, 98, 0, 0, 0, 0, 1, 1, 0, 1, 1, 0, 1, 0, 1, 0, 1
1041, 1067, '1', 0.00393, 0.01722, 0.00262, 149, 149, 149, 0, 0, 0, 0, 1, 1, 0, 1, 1, 0, 1, 0, 1, 0, 1
1044, 3019, '1', 0.03857, 0.17192, 0.02521, 149, 149, 149, 0, 0, 0, 0, 1, 1, 0, 1, 1, 0, 1, 0, 1, 0, 1
3130, 1044, '1', 0.02731, 0.19029, 0.03111, 221, 221, 221, 0, 0, 0, 0, 1, 1, 0, 1, 1, 0, 1, 0, 1, 0, 1
1045, 1064, '1', 0.00545, 0.03794, 0.0062, 221, 221, 221, 0, 0, 0, 0, 1, 1, 0, 1, 1, 0, 1, 0, 1, 0, 1
1087, 1046, '1', 0.03262, 0.14269, 0.02173, 149, 149, 149, 0, 0, 0, 0, 1, 1, 0, 1, 1, 0, 1, 0, 1, 0, 1
1046, 3009, '1', 0.05654, 0.23454, 0.0398, 149, 149, 149, 0, 0, 0, 0, 1, 1, 0, 1, 1, 0, 1, 0, 1, 0, 1
1047, 1085, '1', 0.00947, 0.06117, 0.01167, 221, 221, 221, 0, 0, 0, 0, 1, 1, 0, 1, 1, 0, 1, 0, 1, 0, 1
1053, 1081, '1', 0.003, 0.03, 0.06, 548, 548, 548, 0, 0, 0, 0, 1, 1, 0, 1, 1, 0, 1, 0, 1, 0, 1
1054, 1056, '1', 0.02202, 0.09633, 0.01467, 149, 149, 149, 0, 0, 0, 0, 1, 1, 0, 1, 1, 0, 1, 0, 1, 0, 1
1089, 1054, '1', 0.08737, 0.21357, 0.02796, 98, 98, 98, 0, 0, 0, 0, 1, 1, 0, 1, 1, 0, 1, 0, 1, 0, 1
1055, 1089, '1', 0.04982, 0.12179, 0.01595, 98, 98, 98, 0, 0, 0, 0, 1, 1, 0, 1, 1, 0, 1, 0, 1, 0, 1
1056, 1061, '1', 0.02267, 0.12946, 0.01945, 150, 150, 150, 0, 0, 0, 0, 0, 1, 0, 1, 1, 0, 1, 0, 1, 0, 1
1056, 1065, '1', 0.02269, 0.12962, 0.01948, 250, 250, 250, 0, 0, 0, 0, 1, 1, 0, 1, 1, 0, 1, 0, 1, 0, 1
1069, 1058, '1', 0.0074, 0.05155, 0.00843, 221, 221, 221, 0, 0, 0, 0, 1, 1, 0, 1, 1, 0, 1, 0, 1, 0, 1
1069, 1058, '2', 0.0074, 0.05155, 0.00843, 221, 221, 221, 0, 0, 0, 0, 1, 1, 0, 1, 1, 0, 1, 0, 1, 0, 1
1058, 1087, '1', 0.01573, 0.10956, 0.01791, 221, 221, 221, 0, 0, 0, 0, 1, 1, 0, 1, 1, 0, 1, 0, 1, 0, 1
1058, 1087, '2', 0.01573, 0.10956, 0.01791, 221, 221, 221, 0, 0, 0, 0, 1, 1, 0, 1, 1, 0, 1, 0, 1, 0, 1
1061, 3042, '1', 0.054, 0.18, 0.028, 221, 221, 221, 0, 0, 0, 0, 1, 1, 0, 1, 1, 0, 1, 0, 1, 0, 1
1088, 1068, '1', 0.02962, 0.16921, 0.02543, 98, 98, 98, 0, 0, 0, 0, 1, 1, 0, 1, 1, 0, 1, 0, 1, 0, 1
1082, 1069, '1', 0.02137, 0.0952, 0.01396, 149, 149, 149, 0, 0, 0, 0, 1, 1, 0, 1, 1, 0, 1, 0, 1, 0, 1
3048, 1079, '1', 0.0013, 0.015, 1.02, 2300, 2300, 2300, 0, 0, 0, 0, 1, 1, 0, 1, 1, 0, 1, 0, 1, 0, 1
3048, 1079, '2', 0.0013, 0.015, 1.02, 2300, 2300, 2300, 0, 0, 0, 0, 1, 1, 0, 1, 1, 0, 1, 0, 1, 0, 1
1081, 3058, '1', 0.0091, 0.089, 0.171, 548, 548, 548, 0, 0, 0, 0, 1, 1, 0, 1, 1, 0, 1, 0, 1, 0, 1
1084, 3130, '1', 0.02049, 0.09131, 0.01339, 221, 221, 221, 0, 0, 0, 0, 1, 1, 0, 1, 1, 0, 1, 0, 1, 0, 1
1085, 1086, '1', 0.03392, 0.14838, 0.0226, 149, 149, 149, 0, 0, 0, 0, 1, 1, 0, 1, 1, 0, 1, 0, 1, 0, 1
1090, 1085, '1', 0.02018, 0.13786, 0.02346, 221, 221, 221, 0, 0, 0, 0, 1, 1, 0, 1, 1, 0, 1, 0, 1, 0, 1
2029, 1091, '1', 0.0389, 0.17144, 0.0798, 187, 187, 187, 0, 0, 0, 0, 1, 1, 0, 1, 1, 0, 1, 0, 1, 0, 1
1091, 2048, '1', 0.02193, 0.09667, 0.045, 187, 187, 187, 0, 0, 0, 0, 1, 1, 0, 1, 1, 0, 1, 0, 1, 0, 1
2098, 1091, '1', 0.00554, 0.02443, 0.01137, 187, 187, 187, 0, 0, 0, 0, 1, 1, 0, 1, 1, 0, 1, 0, 1, 0, 1
2022, 2001, '1', 0.00839, 0.03697, 0.01721, 187, 187, 187, 0, 0, 0, 0, 1, 1, 0, 1, 1, 0, 1, 0, 1, 0, 1
2027, 2001, '1', 0.00955, 0.04062, 0.02032, 187, 187, 187, 0, 0, 0, 0, 1, 1, 0, 1, 1, 0, 1, 0, 1, 0, 1
2021, 2002, '1', 0.00097, 0.01175, 0.78032, 2295, 2295, 2295, 0, 0, 0, 0, 1, 1, 0, 1, 1, 0, 1, 0, 1, 0, 1
2002, 2101, '1', 0.00031, 0.0037, 0.24573, 2020, 2020, 2020, 0, 0, 0, 0, 1, 1, 0, 1, 1, 0, 1, 0, 1, 0, 1
2038, 2003, '1', 0.00353, 0.02067, 0.01032, 251, 251, 251, 0, 0, 0, 0, 1, 1, 0, 1, 1, 0, 1, 0, 1, 0, 1
2003, 2047, '1', 0.0013, 0.0099, 0.0052, 310, 310, 310, 0, 0, 0, 0, 1, 1, 0, 1, 1, 0, 1, 0, 1, 0, 1
2007, 2114, '1', 0.00888, 0.05207, 0.026, 251, 251, 251, 0, 0, 0, 0, 1, 1, 0, 1, 1, 0, 1, 0, 1, 0, 1
2007, 2122, '1', 0.00861, 0.03661, 0.01831, 187, 187, 187, 0, 0, 0, 0, 1, 1, 0, 1, 1, 0, 1, 0, 1, 0, 1
2014, 2008, '1', 0.02253, 0.09931, 0.04623, 187, 187, 187, 0, 0, 0, 0, 1, 1, 0, 1, 1, 0, 1, 0, 1, 0, 1
2008, 2052, '1', 0.01877, 0.08271, 0.0385, 187, 187, 187, 0, 0, 0, 0, 1, 1, 0, 1, 1, 0, 1, 0, 1, 0, 1
2009, 2049, '1', 0.01224, 0.07176, 0.03583, 251, 251, 251, 0, 0, 0, 0, 1, 1, 0, 1, 1, 0, 1, 0, 1, 0, 1
2009, 2082, '1', 0.00735, 0.03126, 0.01563, 187, 187, 187, 0, 0, 0, 0, 1, 1, 0, 1, 1, 0, 1, 0, 1, 0, 1
2109, 2009, '1', 0.00725, 0.03084, 0.01542, 250, 250, 250, 0, 0, 0, 0, 1, 1, 0, 1, 1, 0, 1, 0, 1, 0, 1
2061, 2010, '1', 0.02439, 0.10748, 0.05003, 187, 187, 187, 0, 0, 0, 0, 1, 1, 0, 1, 1, 0, 1, 0, 1, 0, 1
2010, 2079, '1', 0.02061, 0.09083, 0.04228, 187, 187, 187, 0, 0, 0, 0, 1, 1, 0, 1, 1, 0, 1, 0, 1, 0, 1
2010, 2091, '1', 0.02461, 0.10467, 0.05235, 187, 187, 187, 0, 0, 0, 0, 1, 1, 0, 1, 1, 0, 1, 0, 1, 0, 1
2127, 2011, '1', 0.00108, 0.01307, 0.86827, 2020, 2020, 2020, 0, 0, 0, 0, 1, 1, 0, 1, 1, 0, 1, 0, 1, 0, 1
2012, 2041, '1', 0.01245, 0.05297, 0.02649, 187, 187, 187, 0, 0, 0, 0, 1, 1, 0, 1, 1, 0, 1, 0, 1, 0, 1
2012, 2052, '1', 0.02008, 0.08851, 0.0412, 187, 187, 187, 0, 0, 0, 0, 1, 1, 0, 1, 1, 0, 1, 0, 1, 0, 1
...